Circuit: * C:\Users\elias\OneDrive\Desktop\Analog AI\Spice Simulations\Summing Amplifier\FullCircuit.asc

Instance "m:u2:6": Length shorter than recommended for a level 2 MOSFET.
Instance "m:u2:5": Length shorter than recommended for a level 2 MOSFET.
Instance "m:u2:4": Length shorter than recommended for a level 2 MOSFET.
Instance "m:u2:3": Length shorter than recommended for a level 2 MOSFET.
Instance "m:u2:2": Length shorter than recommended for a level 2 MOSFET.
Instance "m:u2:1": Length shorter than recommended for a level 2 MOSFET.
Instance "m:u1:6": Length shorter than recommended for a level 2 MOSFET.
Instance "m:u1:5": Length shorter than recommended for a level 2 MOSFET.
Instance "m:u1:4": Length shorter than recommended for a level 2 MOSFET.
Instance "m:u1:3": Length shorter than recommended for a level 2 MOSFET.
Instance "m:u1:2": Length shorter than recommended for a level 2 MOSFET.
Instance "m:u1:1": Length shorter than recommended for a level 2 MOSFET.
Direct Newton iteration for .op point succeeded.

Date: Sun Jun 12 23:19:11 2022
Total elapsed time: 0.172 seconds.

tnom = 27
temp = 27
method = modified trap
totiter = 2520
traniter = 2508
tranpoints = 1230
accept = 1190
rejected = 40
matrix size = 114
fillins = 75
solver = Normal
Thread vector: 15.8/10.1[2] 3.9/3.7[1] 4.8/3.7[2] 0.9/2.4[1]  2592/500
Matrix Compiler1: 9.59 KB object code size  3.2/1.8/[0.7]
Matrix Compiler2: 11.32 KB object code size  1.4/2.1/[0.8]

