Circuit: * C:\Users\elias\OneDrive\Desktop\Analog AI\Spice Simulations\Summing Amplifier\InitialTesting.asc

Instance "m:u1:6": Length shorter than recommended for a level 2 MOSFET.
Instance "m:u1:5": Length shorter than recommended for a level 2 MOSFET.
Instance "m:u1:4": Length shorter than recommended for a level 2 MOSFET.
Instance "m:u1:3": Length shorter than recommended for a level 2 MOSFET.
Instance "m:u1:2": Length shorter than recommended for a level 2 MOSFET.
Instance "m:u1:1": Length shorter than recommended for a level 2 MOSFET.
Direct Newton iteration for .op point succeeded.

Date: Sun Jun 12 23:08:23 2022
Total elapsed time: 0.111 seconds.

tnom = 27
temp = 27
method = modified trap
totiter = 2409
traniter = 2397
tranpoints = 1174
accept = 1150
rejected = 24
matrix size = 61
fillins = 37
solver = Normal
Matrix Compiler1: 4.90 KB object code size  1.6/0.9/[0.4]
Matrix Compiler2: 5.86 KB object code size  0.7/1.0/[0.4]

