Circuit: * C:\Users\elias\OneDrive\Desktop\Analog AI\Spice Simulations\Pooling Layer\InitialTesting.asc

WARNING: Node OUTPUT is floating.

Instance "m:u4:6": Length shorter than recommended for a level 2 MOSFET.
Instance "m:u4:5": Length shorter than recommended for a level 2 MOSFET.
Instance "m:u4:4": Length shorter than recommended for a level 2 MOSFET.
Instance "m:u4:3": Length shorter than recommended for a level 2 MOSFET.
Instance "m:u4:2": Length shorter than recommended for a level 2 MOSFET.
Instance "m:u4:1": Length shorter than recommended for a level 2 MOSFET.
Instance "m:u3:6": Length shorter than recommended for a level 2 MOSFET.
Instance "m:u3:5": Length shorter than recommended for a level 2 MOSFET.
Instance "m:u3:4": Length shorter than recommended for a level 2 MOSFET.
Instance "m:u3:3": Length shorter than recommended for a level 2 MOSFET.
Instance "m:u3:2": Length shorter than recommended for a level 2 MOSFET.
Instance "m:u3:1": Length shorter than recommended for a level 2 MOSFET.
Instance "m:u2:6": Length shorter than recommended for a level 2 MOSFET.
Instance "m:u2:5": Length shorter than recommended for a level 2 MOSFET.
Instance "m:u2:4": Length shorter than recommended for a level 2 MOSFET.
Instance "m:u2:3": Length shorter than recommended for a level 2 MOSFET.
Instance "m:u2:2": Length shorter than recommended for a level 2 MOSFET.
Instance "m:u2:1": Length shorter than recommended for a level 2 MOSFET.
Instance "m:u1:6": Length shorter than recommended for a level 2 MOSFET.
Instance "m:u1:5": Length shorter than recommended for a level 2 MOSFET.
Instance "m:u1:4": Length shorter than recommended for a level 2 MOSFET.
Instance "m:u1:3": Length shorter than recommended for a level 2 MOSFET.
Instance "m:u1:2": Length shorter than recommended for a level 2 MOSFET.
Instance "m:u1:1": Length shorter than recommended for a level 2 MOSFET.
Direct Newton iteration for .op point succeeded.
Heightened Def Con from 9.77021e-011 to 3.0977e-009
Heightened Def Con from 2.5778e-005 to 2.578e-005
Heightened Def Con from 2.57803e-005 to 2.57814e-005
Heightened Def Con from 2.5782e-005 to 2.5783e-005
Heightened Def Con from 2.77444e-005 to 2.77454e-005
Heightened Def Con from 2.77454e-005 to 2.77464e-005
Heightened Def Con from 2.83411e-005 to 2.83421e-005
Heightened Def Con from 2.83423e-005 to 2.83424e-005
Heightened Def Con from 2.83434e-005 to 2.83435e-005
Heightened Def Con from 2.83435e-005 to 2.83437e-005
Heightened Def Con from 2.83438e-005 to 2.83438e-005
Heightened Def Con from 2.83439e-005 to 2.83449e-005
Heightened Def Con from 2.83476e-005 to 2.83476e-005
Heightened Def Con from 2.83476e-005 to 2.83486e-005
Heightened Def Con from 2.83688e-005 to 2.83698e-005
Heightened Def Con from 2.83735e-005 to 2.83737e-005
Heightened Def Con from 2.83739e-005 to 2.83749e-005
Heightened Def Con from 2.84565e-005 to 2.84575e-005
Heightened Def Con from 2.84576e-005 to 2.84578e-005
Heightened Def Con from 2.85118e-005 to 2.85128e-005
Heightened Def Con from 2.85266e-005 to 2.85267e-005
Heightened Def Con from 2.85307e-005 to 2.85317e-005
Heightened Def Con from 2.85382e-005 to 2.85383e-005
Heightened Def Con from 2.85396e-005 to 2.85406e-005
Heightened Def Con from 2.85406e-005 to 2.85408e-005
Heightened Def Con from 2.85421e-005 to 2.85431e-005
Heightened Def Con from 2.85433e-005 to 2.85434e-005
Heightened Def Con from 2.85441e-005 to 2.85451e-005
Heightened Def Con from 2.85451e-005 to 2.85461e-005
Heightened Def Con from 2.85551e-005 to 2.85561e-005
Heightened Def Con from 2.856e-005 to 2.85602e-005
Heightened Def Con from 2.85613e-005 +to 2.85614e-005
Heightened Def Con from 2.86103e-005 to 2.86114e-005
Heightened Def Con from 2.86121e-005 to 2.86131e-005
Heightened Def Con from 2.86762e-005 to 2.86763e-005
Heightened Def Con from 2.86763e-005 to 2.86773e-005
Heightened Def Con from 2.86913e-005 to 2.86933e-005
Heightened Def Con from 2.87196e-005 to 2.87197e-005
Heightened Def Con from 2.87267e-005 to 2.87277e-005
Heightened Def Con from 2.87439e-005 to 2.8744e-005
Heightened Def Con from 2.87461e-005 to 2.87471e-005
Heightened Def Con from 2.87488e-005 to 2.8749e-005
Heightened Def Con from 2.8749e-005 to 2.87491e-005
Heightened Def Con from 2.87493e-005 to 2.87503e-005
Heightened Def Con from 2.87564e-005 to 2.87565e-005
Heightened Def Con from 2.87936e-005 to 2.87937e-005
Heightened Def Con from 2.87977e-005 +to 2.87987e-005
Heightened Def Con from 2.88005e-005 to 2.88015e-005
Heightened Def Con from 2.88025e-005 to 2.88026e-005
Heightened Def Con from 2.88073e-005 to 2.88074e-005
Heightened Def Con from 2.88076e-005 +to 2.88086e-005
Heightened Def Con from 2.88107e-005 to 2.88117e-005
Heightened Def Con from 2.88138e-005 to 2.88158e-005
Heightened Def Con from 2.88203e-005 to 2.88213e-005
Heightened Def Con from 2.88234e-005 to 2.88235e-005
Heightened Def Con from 2.88347e-005 to 2.88357e-005
Heightened Def Con from 2.88522e-005 to 2.88522e-005
Heightened Def Con from 2.88522e-005 to 2.88523e-005
Heightened Def Con from 2.88523e-005 to 2.88533e-005
Heightened Def Con from 2.88665e-005 to 2.88667e-005
Heightened Def Con from 2.88668e-005 to 2.88668e-005
Heightened Def Con from 2.88676e-005 to 2.88686e-005
Heightened Def Con from 2.88686e-005 to 2.88687e-005
Heightened Def Con from 2.88701e-005 to 2.88711e-005
Heightened Def Con from 2.88768e-005 to 2.88778e-005
Heightened Def Con from 2.88915e-005 to 2.88925e-005
Heightened Def Con from 2.88927e-005 to 2.88927e-005
Heightened Def Con from 2.88932e-005 to 2.88952e-005
Heightened Def Con from 2.88974e-005 to 2.88975e-005
Heightened Def Con from 2.89009e-005 to 2.89019e-005
Heightened Def Con from 2.89021e-005 to 2.89022e-005
Heightened Def Con from 2.89022e-005 to 2.89023e-005
Heightened Def Con from 2.89026e-005 to 2.89026e-005
Heightened Def Con from 2.89037e-005 to 2.89038e-005
Heightened Def Con from 2.89039e-005 to 2.89039e-005
Heightened Def Con from 2.8904e-005 to 2.89042e-005
Heightened Def Con from 2.8936e-005 to 2.8937e-005
Heightened Def Con from 2.89377e-005 to 2.89387e-005
Heightened Def Con from 2.89402e-005 to 2.89412e-005
Heightened Def Con from 2.90731e-005 +to 2.90741e-005
Heightened Def Con from 2.90889e-005 to 2.90899e-005
Heightened Def Con from 2.90925e-005 to 2.90935e-005
Heightened Def Con from 2.93845e-005 to 2.93846e-005
Heightened Def Con from 2.93851e-005 to 2.93851e-005
Heightened Def Con from 2.9388e-005 to 2.93882e-005
Heightened Def Con from 2.93902e-005 to 2.93903e-005
Heightened Def Con from 2.93907e-005 to 2.93908e-005
Heightened Def Con from 2.9399e-005 to 2.93992e-005
Heightened Def Con from 2.94107e-005 to 2.94127e-005
Heightened Def Con from 2.94206e-005 to 2.94216e-005
Heightened Def Con from 2.94218e-005 to 2.9423e-005
Heightened Def Con from 2.94238e-005 to 2.94248e-005
Heightened Def Con from 2.94332e-005 to 2.94342e-005
Heightened Def Con from 2.9469e-005 to 2.94691e-005
Heightened Def Con from 2.94692e-005 to 2.94702e-005
Heightened Def Con from 2.94843e-005 to 2.94853e-005
Heightened Def Con from 2.95e-005 to 2.9501e-005
Heightened Def Con from 2.95012e-005 to 2.95013e-005
Heightened Def Con from 2.95961e-005 to 2.95961e-005
Heightened Def Con from 2.95966e-005 to 2.95976e-005
Heightened Def Con from 2.9609e-005 to 2.96091e-005
Heightened Def Con from 2.96109e-005 to 2.96119e-005
Heightened Def Con from 2.96144e-005 to 2.96145e-005
Heightened Def Con from 2.96156e-005 to 2.96166e-005
Heightened Def Con from 2.96169e-005 to 2.9617e-005
Heightened Def Con from 2.96173e-005 to 2.96175e-005
Heightened Def Con from 2.96178e-005 to 2.96179e-005
Heightened Def Con from 2.96187e-005 to 2.96197e-005
Heightened Def Con from 2.96243e-005 to 2.96254e-005
Heightened Def Con from 2.96258e-005 to 2.96268e-005
Heightened Def Con from 2.96412e-005 to 2.96422e-005
Heightened Def Con from 2.9667e-005 to 2.9668e-005
Heightened Def Con from 2.97068e-005 to 2.97078e-005
Heightened Def Con from 2.97314e-005 to 2.97315e-005
Heightened Def Con from 2.97332e-005 to 2.97333e-005
Heightened Def Con from 2.97639e-005 to 2.97649e-005
Heightened Def Con from 2.97691e-005 to 2.97701e-005
Heightened Def Con from 2.97712e-005 to 2.97722e-005
Heightened Def Con from 2.97782e-005 to 2.97792e-005
Heightened Def Con from 2.97796e-005 to 2.97816e-005
Heightened Def Con from 2.97836e-005 to 2.97837e-005
Heightened Def Con from 2.97841e-005 to 2.97861e-005
Heightened Def Con from 2.97976e-005 to 2.97977e-005
Heightened Def Con from 2.97987e-005 to 2.97997e-005
Heightened Def Con from 3.00326e-005 to 3.00336e-005
Heightened Def Con from 3.00406e-005 to 3.00416e-005
Heightened Def Con from 3.0099e-005 to 3.00992e-005
Heightened Def Con from 3.00999e-005 to 3.01009e-005
Heightened Def Con from 3.01009e-005 to 3.01019e-005
Heightened Def Con from 3.01166e-005 to 3.01167e-005
Heightened Def Con from 3.01169e-005 to 3.01179e-005
Heightened Def Con from 3.01329e-005 to 3.01349e-005
Heightened Def Con from 3.0137e-005 to 3.0138e-005
Heightened Def Con from 3.01403e-005 to 3.01404e-005
Heightened Def Con from 3.01495e-005 to 3.01496e-005
Heightened Def Con from 3.01505e-005 to 3.01515e-005
Heightened Def Con from 3.01549e-005 to 3.01559e-005
Heightened Def Con from 3.01576e-005 to 3.01576e-005
Heightened Def Con from 3.01691e-005 to 3.01701e-005
Heightened Def Con from 3.01702e-005 to 3.01712e-005
Heightened Def Con from 3.02088e-005 to 3.0209e-005
Heightened Def Con from 3.02119e-005 to 3.02121e-005
Heightened Def Con from 3.11535e-005 to 3.11545e-005
Heightened Def Con from 3.11615e-005 to 3.11625e-005
Heightened Def Con from 3.11756e-005 to 3.11766e-005
Heightened Def Con from 3.82709e-005 to 3.82719e-005
Heightened Def Con from 3.82719e-005 to 3.82721e-005
Heightened Def Con from 3.82721e-005 to 3.82731e-005
Heightened Def Con from 3.82891e-005 to 3.82901e-005
Heightened Def Con from 3.82903e-005 to 3.82913e-005
Heightened Def Con from 3.82913e-005 to 3.82923e-005
Heightened Def Con from 3.82923e-005 to 3.82925e-005
Heightened Def Con from 3.82967e-005 to 3.82977e-005
Heightened Def Con from 3.8298e-005 to 3.82981e-005
Heightened Def Con from 3.82984e-005 to 3.82985e-005
Heightened Def Con from 3.82993e-005 to 3.83003e-005
Heightened Def Con from 3.83104e-005 to 3.83114e-005
Heightened Def Con from 3.83226e-005 to 3.83236e-005
Heightened Def Con from 3.83236e-005 to 3.83246e-005
Heightened Def Con from 3.83412e-005 to 3.83422e-005
Heightened Def Con from 3.83535e-005 +to 3.83545e-005
Heightened Def Con from 3.83571e-005 to 3.83581e-005
Heightened Def Con from 3.83581e-005 to 3.83591e-005
Heightened Def Con from 3.83594e-005 +to 3.83595e-005
Heightened Def Con from 3.83595e-005 to 3.83605e-005
Heightened Def Con from 3.83605e-005 to 3.83607e-005
Heightened Def Con from 3.83663e-005 to 3.83665e-005
Heightened Def Con from 3.83665e-005 to 3.83675e-005
Heightened Def Con from 3.83701e-005 to 3.83702e-005
Heightened Def Con from 3.8382e-005 to 3.83822e-005
Heightened Def Con from 3.83988e-005 to 3.83998e-005
Heightened Def Con from 3.84298e-005 to 3.843e-005
Heightened Def Con from 3.84713e-005 to 3.84715e-005
Heightened Def Con from 3.84719e-005 +to 3.84729e-005
Heightened Def Con from 3.84776e-005 to 3.84786e-005
Heightened Def Con from 3.84828e-005 to 3.84838e-005
Heightened Def Con from 3.87729e-005 to 3.8773e-005
Heightened Def Con from 3.87731e-005 to 3.87741e-005
Heightened Def Con from 3.87802e-005 to 3.87803e-005
Heightened Def Con from 3.87806e-005 to 3.87807e-005
Heightened Def Con from 3.87814e-005 to 3.87816e-005
Heightened Def Con from 3.87816e-005 to 3.87817e-005
Heightened Def Con from 3.87817e-005 to 3.87827e-005
Heightened Def Con from 3.87967e-005 to 3.87968e-005
Heightened Def Con from 3.87971e-005 to 3.87981e-005
Heightened Def Con from 4.28326e-005 to 4.28336e-005
Heightened Def Con from 4.28339e-005 to 4.28349e-005
Heightened Def Con from 4.28349e-005 +to 4.28349e-005
Heightened Def Con from 4.28349e-005 +to 4.28359e-005
Heightened Def Con from 4.28508e-005 to 4.28509e-005
Heightened Def Con from 4.28509e-005 to 4.2851e-005
Heightened Def Con from 4.28515e-005 to 4.28525e-005
Heightened Def Con from 4.28528e-005 to 4.28538e-005
Heightened Def Con from 4.28685e-005 to 4.28686e-005
Heightened Def Con from 4.2869e-005 to 4.287e-005
Heightened Def Con from 4.287e-005 to 4.2871e-005
Heightened Def Con from 4.28713e-005 to 4.28714e-005
Heightened Def Con from 4.28715e-005 to 4.28715e-005
Heightened Def Con from 4.28715e-005 to 4.28725e-005
Heightened Def Con from 4.28751e-005 +to 4.28761e-005
Heightened Def Con from 4.28761e-005 to 4.28771e-005
Heightened Def Con from 4.28771e-005 to 4.28781e-005
Heightened Def Con from 4.28781e-005 to 4.28791e-005
Heightened Def Con from 4.28888e-005 to 4.28898e-005
Heightened Def Con from 4.28961e-005 to 4.28963e-005
Heightened Def Con from 4.28965e-005 to 4.28966e-005
Heightened Def Con from 4.28969e-005 to 4.28979e-005
Heightened Def Con from 4.28982e-005 to 4.28992e-005
Heightened Def Con from 4.76962e-005 to 4.76972e-005
Heightened Def Con from 4.76972e-005 to 4.76982e-005
Heightened Def Con from 4.76982e-005 to 4.76983e-005
Heightened Def Con from 4.77039e-005 to 4.77049e-005
Heightened Def Con from 4.77049e-005 to 4.77059e-005
Heightened Def Con from 4.77246e-005 +to 4.77247e-005
Heightened Def Con from 4.77247e-005 to 4.77257e-005
Heightened Def Con from 4.77423e-005 to 4.77433e-005
Heightened Def Con from 4.77438e-005 to 4.77448e-005
Heightened Def Con from 4.77517e-005 to 4.77527e-005
Heightened Def Con from 4.77667e-005 to 4.77677e-005
Heightened Def Con from 4.80989e-005 to 4.80999e-005
Heightened Def Con from 4.80999e-005 to 4.81009e-005
Heightened Def Con from 4.81029e-005 to 4.8103e-005
Heightened Def Con from 4.81033e-005 to 4.81034e-005
Heightened Def Con from 4.81037e-005 to 4.81037e-005
Heightened Def Con from 4.81037e-005 to 4.81047e-005
Heightened Def Con from 4.81422e-005 +to 4.81432e-005
Heightened Def Con from 4.81463e-005 +to 4.81473e-005
Heightened Def Con from 4.81498e-005 to 4.81508e-005
Heightened Def Con from 4.82408e-005 to 4.82418e-005
Heightened Def Con from 4.82428e-005 +to 4.82428e-005
Heightened Def Con from 4.82428e-005 to 4.82438e-005
Heightened Def Con from 4.82568e-005 to 4.82578e-005
Heightened Def Con from 4.82638e-005 to 4.82648e-005
Heightened Def Con from 4.83432e-005 to 4.83442e-005
Heightened Def Con from 4.83467e-005 to 4.83477e-005
Heightened Def Con from 4.83516e-005 to 4.83526e-005
Heightened Def Con from 4.83547e-005 to 4.83557e-005
Heightened Def Con from 4.83705e-005 to 4.83715e-005
Heightened Def Con from 4.84212e-005 to 4.84222e-005
Heightened Def Con from 4.8431e-005 to 4.84311e-005
Heightened Def Con from 4.8441e-005 to 4.84411e-005
Heightened Def Con from 4.84429e-005 to 4.84439e-005
Heightened Def Con from 4.8445e-005 to 4.84452e-005
Heightened Def Con from 4.84454e-005 to 4.84455e-005
Heightened Def Con from 4.84456e-005 to 4.84466e-005
Heightened Def Con from 4.84486e-005 to 4.84496e-005
Heightened Def Con from 4.84626e-005 to 4.84636e-005
Heightened Def Con from 4.87611e-005 to 4.87621e-005
Heightened Def Con from 4.87621e-005 to 4.87631e-005
Heightened Def Con from 4.87631e-005 to 4.87632e-005
Heightened Def Con from 4.87632e-005 to 4.87634e-005
Heightened Def Con from 4.87638e-005 to 4.87648e-005
Heightened Def Con from 4.87669e-005 to 4.8767e-005
Heightened Def Con from 4.87678e-005 +to 4.87679e-005
Heightened Def Con from 4.88019e-005 to 4.88029e-005
Heightened Def Con from 4.89293e-005 to 4.89294e-005
Heightened Def Con from 4.89294e-005 to 4.89304e-005
Heightened Def Con from 4.89308e-005 to 4.89309e-005
Heightened Def Con from 4.89309e-005 to 4.89319e-005
Heightened Def Con from 4.89319e-005 to 4.8932e-005
Heightened Def Con from 4.8932e-005 to 4.89321e-005
Heightened Def Con from 4.89322e-005 to 4.89332e-005
Heightened Def Con from 4.89352e-005 to 4.89362e-005
Heightened Def Con from 4.91903e-005 to 4.91913e-005
Heightened Def Con from 4.91913e-005 to 4.91915e-005
Heightened Def Con from 4.91927e-005 to 4.91928e-005
Heightened Def Con from 4.91936e-005 to 4.91937e-005
Heightened Def Con from 4.91937e-005 to 4.91947e-005
Heightened Def Con from 4.92042e-005 to 4.92052e-005
Heightened Def Con from 4.92052e-005 to 4.92052e-005
Heightened Def Con from 4.92052e-005 to 4.92062e-005
Heightened Def Con from 4.92062e-005 to 4.92072e-005
Heightened Def Con from 4.92072e-005 to 4.92082e-005
Heightened Def Con from 4.92117e-005 to 4.92119e-005
Heightened Def Con from 4.92201e-005 to 4.92211e-005
Heightened Def Con from 4.92224e-005 to 4.92234e-005
Heightened Def Con from 4.9226e-005 to 4.92261e-005
Heightened Def Con from 4.92261e-005 to 4.92271e-005
Heightened Def Con from 4.93265e-005 to 4.93275e-005
Heightened Def Con from 4.93277e-005 to 4.93278e-005
Heightened Def Con from 4.93278e-005 +to 4.9328e-005
Heightened Def Con from 4.93525e-005 to 4.93535e-005
Heightened Def Con from 4.93538e-005 to 4.93548e-005
Heightened Def Con from 4.93618e-005 to 4.93628e-005
Heightened Def Con from 4.93945e-005 to 4.93955e-005
Heightened Def Con from 4.95358e-005 to 4.95359e-005
Heightened Def Con from 4.95359e-005 to 4.95369e-005
Heightened Def Con from 4.95404e-005 to 4.95414e-005
Heightened Def Con from 4.95528e-005 to 4.95529e-005
Heightened Def Con from 4.95532e-005 to 4.95542e-005
Heightened Def Con from 4.95633e-005 to 4.95643e-005
Heightened Def Con from 4.95643e-005 to 4.95644e-005
Heightened Def Con from 4.95644e-005 to 4.95646e-005
Heightened Def Con from 4.95824e-005 to 4.95834e-005
Heightened Def Con from 4.95907e-005 to 4.95917e-005
Heightened Def Con from 4.95942e-005 to 4.95943e-005
Heightened Def Con from 4.95961e-005 to 4.95971e-005
Heightened Def Con from 4.96131e-005 to 4.96141e-005
Heightened Def Con from 4.96144e-005 to 4.96154e-005
Heightened Def Con from 4.96179e-005 to 4.96189e-005
Heightened Def Con from 4.96189e-005 to 4.9619e-005
Heightened Def Con from 4.96217e-005 +to 4.96227e-005
Heightened Def Con from 4.96247e-005 to 4.96257e-005
Heightened Def Con from 4.96283e-005 +to 4.96293e-005
Heightened Def Con from 4.96293e-005 to 4.96295e-005
Heightened Def Con from 4.96299e-005 to 4.96301e-005
Heightened Def Con from 4.96309e-005 to 4.96319e-005
Heightened Def Con from 4.96345e-005 +to 4.96346e-005
Heightened Def Con from 4.96346e-005 to 4.96356e-005
Heightened Def Con from 4.96477e-005 to 4.96487e-005
Heightened Def Con from 4.96557e-005 to 4.96567e-005
Heightened Def Con from 4.96587e-005 to 4.96597e-005
Heightened Def Con from 4.96737e-005 to 4.96747e-005
Heightened Def Con from 4.96768e-005 to 4.96769e-005
Heightened Def Con from 4.96769e-005 to 4.96779e-005
Heightened Def Con from 4.96814e-005 to 4.96824e-005
Heightened Def Con from 4.96846e-005 +to 4.96856e-005
Heightened Def Con from 4.96911e-005 to 4.96921e-005
Heightened Def Con from 4.96946e-005 to 4.96956e-005
Heightened Def Con from 4.97057e-005 to 4.97058e-005
Heightened Def Con from 4.97061e-005 to 4.97071e-005
Heightened Def Con from 4.97091e-005 to 4.97101e-005
Heightened Def Con from 4.97288e-005 to 4.97298e-005
Heightened Def Con from 4.97298e-005 to 4.97308e-005
Heightened Def Con from 4.97332e-005 to 4.97333e-005
Heightened Def Con from 4.97341e-005 to 4.97351e-005
Heightened Def Con from 4.97406e-005 to 4.97407e-005
Heightened Def Con from 4.9746e-005 to 4.9747e-005
Heightened Def Con from 4.97507e-005 to 4.97517e-005
Heightened Def Con from 5.00171e-005 to 5.00172e-005
Heightened Def Con from 5.00173e-005 to 5.00183e-005
Heightened Def Con from 5.00192e-005 to 5.00202e-005
Heightened Def Con from 5.00377e-005 to 5.00387e-005
Heightened Def Con from 5.00446e-005 to 5.00448e-005
Heightened Def Con from 5.00483e-005 to 5.00493e-005
Heightened Def Con from 5.00553e-005 to 5.00563e-005
Heightened Def Con from 5.00563e-005 to 5.00573e-005
Heightened Def Con from 5.00593e-005 to 5.00603e-005
Heightened Def Con from 5.00607e-005 to 5.00617e-005
Heightened Def Con from 5.00617e-005 to 5.00627e-005
Heightened Def Con from 5.00652e-005 to 5.00662e-005
Heightened Def Con from 5.00801e-005 to 5.00802e-005
Heightened Def Con from 5.00846e-005 to 5.00847e-005
Heightened Def Con from 5.0085e-005 to 5.0086e-005
Heightened Def Con from 5.0095e-005 to 5.0096e-005
Heightened Def Con from 5.01275e-005 to 5.01285e-005
Heightened Def Con from 5.01307e-005 +to 5.01308e-005
Heightened Def Con from 5.01308e-005 to 5.01309e-005
Heightened Def Con from 5.01318e-005 to 5.01328e-005
Heightened Def Con from 5.01331e-005 to 5.01332e-005
Heightened Def Con from 5.01354e-005 to 5.01364e-005
Heightened Def Con from 5.01402e-005 to 5.01412e-005
Heightened Def Con from 5.01473e-005 to 5.01483e-005
Heightened Def Con from 5.01549e-005 to 5.01559e-005
Heightened Def Con from 5.01572e-005 to 5.01582e-005
Heightened Def Con from 5.01585e-005 ++to 5.01587e-005
Heightened Def Con from 5.01588e-005 to 5.01598e-005
Heightened Def Con from 5.01601e-005 to 5.01611e-005
Heightened Def Con from 5.01672e-005 to 5.01682e-005
Heightened Def Con from 5.01684e-005 to 5.01694e-005
Heightened Def Con from 5.01746e-005 to 5.01756e-005
Heightened Def Con from 5.01756e-005 to 5.01766e-005
Heightened Def Con from 5.01809e-005 to 5.01819e-005
Heightened Def Con from 5.01822e-005 to 5.01823e-005
Heightened Def Con from 5.01823e-005 to 5.01824e-005
Heightened Def Con from 5.01831e-005 to 5.01841e-005
Heightened Def Con from 5.02037e-005 to 5.02047e-005
Heightened Def Con from 5.02112e-005 to 5.02122e-005
Heightened Def Con from 5.02465e-005 to 5.02467e-005
Heightened Def Con from 5.0247e-005 to 5.02471e-005
Heightened Def Con from 5.02472e-005 to 5.02482e-005
Heightened Def Con from 5.0249e-005 to 5.02492e-005
Heightened Def Con from 5.02492e-005 +to 5.02502e-005
Heightened Def Con from 5.0253e-005 to 5.0254e-005
Heightened Def Con from 5.02595e-005 to 5.02597e-005
Heightened Def Con from 5.02597e-005 to 5.02607e-005
Heightened Def Con from 5.02668e-005 to 5.02678e-005
Heightened Def Con from 5.02757e-005 to 5.02767e-005
Heightened Def Con from 5.03111e-005 to 5.03113e-005
Heightened Def Con from 5.03116e-005 to 5.03117e-005
Heightened Def Con from 5.03117e-005 to 5.03119e-005
Heightened Def Con from 5.03119e-005 to 5.03129e-005
Heightened Def Con from 5.03412e-005 to 5.03412e-005
Heightened Def Con from 5.03412e-005 to 5.03422e-005
Heightened Def Con from 5.03439e-005 to 5.0344e-005
Heightened Def Con from 5.03527e-005 to 5.03537e-005
Heightened Def Con from 5.0355e-005 to 5.0356e-005
Heightened Def Con from 5.0398e-005 to 5.0399e-005
Heightened Def Con from 5.0399e-005 to 5.04e-005
Heightened Def Con from 5.04e-005 to 5.0401e-005
Heightened Def Con from 5.04013e-005 to 5.04023e-005
Heightened Def Con from 5.04751e-005 to 5.04753e-005
Heightened Def Con from 5.04783e-005 +to 5.04793e-005
Heightened Def Con from 5.04793e-005 to 5.04803e-005
Heightened Def Con from 5.09291e-005 to 5.09301e-005
Heightened Def Con from 5.09415e-005 to 5.09416e-005
Heightened Def Con from 5.09681e-005 to 5.09682e-005
Heightened Def Con from 5.09842e-005 to 5.09852e-005
Heightened Def Con from 5.20628e-005 +to 5.20638e-005
Heightened Def Con from 5.20708e-005 ++to 5.20709e-005
Heightened Def Con from 5.20735e-005 to 5.20736e-005
Heightened Def Con from 5.20744e-005 to 5.20745e-005
Heightened Def Con from 5.2075e-005 to 5.2076e-005
Heightened Def Con from 5.20807e-005 +to 5.20817e-005
Heightened Def Con from 5.20817e-005 to 5.20817e-005
Heightened Def Con from 5.20817e-005 to 5.20828e-005
Heightened Def Con from 5.2085e-005 to 5.20851e-005
Heightened Def Con from 5.20852e-005 to 5.20862e-005
Heightened Def Con from 5.20883e-005 to 5.20885e-005
Heightened Def Con from 5.20885e-005 to 5.20895e-005
Heightened Def Con from 5.20897e-005 to 5.20898e-005
Heightened Def Con from 5.20903e-005 to 5.20913e-005
Heightened Def Con from 5.20913e-005 to 5.20923e-005
Heightened Def Con from 5.32571e-005 to 5.32573e-005
Heightened Def Con from 5.32581e-005 to 5.32591e-005
Heightened Def Con from 5.32596e-005 to 5.32597e-005
Heightened Def Con from 5.32604e-005 to 5.32606e-005
Heightened Def Con from 5.32644e-005 to 5.32654e-005
Heightened Def Con from 5.32663e-005 to 5.32664e-005
Heightened Def Con from 5.32664e-005 to 5.32665e-005
Heightened Def Con from 5.32761e-005 to 5.32763e-005
Heightened Def Con from 5.32763e-005 to 5.32773e-005
Heightened Def Con from 5.32811e-005 +to 5.32821e-005
Heightened Def Con from 5.32824e-005 to 5.32825e-005
Heightened Def Con from 5.32828e-005 to 5.32838e-005
Heightened Def Con from 5.32838e-005 to 5.32839e-005
Heightened Def Con from 5.32856e-005 to 5.32858e-005
Heightened Def Con from 5.32895e-005 to 5.32905e-005
Heightened Def Con from 5.32925e-005 to 5.32927e-005
Heightened Def Con from 5.32927e-005 to 5.32928e-005
Heightened Def Con from 5.32928e-005 to 5.32929e-005
Heightened Def Con from 5.3293e-005 to 5.3294e-005
Heightened Def Con from 5.33367e-005 +to 5.33377e-005
Heightened Def Con from 5.33377e-005 to 5.33387e-005
Heightened Def Con from 5.33885e-005 to 5.33895e-005
Heightened Def Con from 5.33917e-005 to 5.33918e-005
Heightened Def Con from 5.33921e-005 to 5.33931e-005
Heightened Def Con from 5.33991e-005 to 5.33992e-005
Heightened Def Con from 5.33992e-005 to 5.33993e-005
Heightened Def Con from 5.34002e-005 to 5.34003e-005
Heightened Def Con from 5.34003e-005 to 5.34013e-005
Heightened Def Con from 5.34013e-005 to 5.34023e-005
Heightened Def Con from 5.34085e-005 to 5.34086e-005
Heightened Def Con from 5.34141e-005 to 5.34151e-005
Heightened Def Con from 5.34465e-005 to 5.34475e-005
Heightened Def Con from 5.34475e-005 to 5.34476e-005
Heightened Def Con from 5.34477e-005 to 5.34478e-005
Heightened Def Con from 5.34478e-005 +to 5.3448e-005
Heightened Def Con from 5.34499e-005 to 5.34501e-005
Heightened Def Con from 5.34676e-005 to 5.34686e-005
Heightened Def Con from 5.34986e-005 to 5.34996e-005
Heightened Def Con from 5.34996e-005 to 5.35006e-005
Heightened Def Con from 5.35009e-005 to 5.35019e-005
Heightened Def Con from 5.36474e-005 to 5.36476e-005
Heightened Def Con from 5.36479e-005 to 5.3648e-005
Heightened Def Con from 5.3648e-005 to 5.3649e-005
Heightened Def Con from 5.36493e-005 to 5.36495e-005
Heightened Def Con from 5.36512e-005 to 5.36522e-005
Heightened Def Con from 5.36525e-005 to 5.36535e-005
Heightened Def Con from 5.3657e-005 to 5.36571e-005
Heightened Def Con from 5.36575e-005 to 5.36585e-005
Heightened Def Con from 5.36645e-005 to 5.36655e-005
Heightened Def Con from 5.36677e-005 to 5.36679e-005
Heightened Def Con from 5.36682e-005 to 5.36683e-005
Heightened Def Con from 5.36691e-005 to 5.36701e-005
Heightened Def Con from 5.38023e-005 to 5.38024e-005
Heightened Def Con from 5.38042e-005 to 5.38052e-005
Heightened Def Con from 5.38087e-005 to 5.38088e-005
Heightened Def Con from 5.38109e-005 to 5.38119e-005
Heightened Def Con from 5.3818e-005 to 5.3819e-005
Heightened Def Con from 5.38225e-005 to 5.38226e-005
Heightened Def Con from 5.38238e-005 to 5.38248e-005
Heightened Def Con from 5.38872e-005 +to 5.38874e-005
Heightened Def Con from 5.39034e-005 to 5.39035e-005
Heightened Def Con from 5.39537e-005 to 5.39547e-005
Heightened Def Con from 5.39547e-005 ++to 5.39557e-005
Heightened Def Con from 5.39591e-005 to 5.39592e-005
Heightened Def Con from 5.39592e-005 to 5.39593e-005
Heightened Def Con from 5.39601e-005 to 5.39611e-005
Heightened Def Con from 5.40322e-005 to 5.40332e-005
Heightened Def Con from 5.40577e-005 to 5.40578e-005
Heightened Def Con from 5.40586e-005 to 5.40587e-005
Heightened Def Con from 5.40603e-005 to 5.40613e-005
Heightened Def Con from 5.40617e-005 to 5.40627e-005
Heightened Def Con from 5.40955e-005 to 5.40965e-005
Heightened Def Con from 5.40968e-005 +to 5.40978e-005
Heightened Def Con from 5.40998e-005 to 5.41e-005
Heightened Def Con from 5.41002e-005 to 5.41003e-005
Heightened Def Con from 5.41003e-005 to 5.41013e-005
Heightened Def Con from 5.41013e-005 to 5.41023e-005
Heightened Def Con from 5.41045e-005 to 5.41055e-005
Heightened Def Con from 5.41055e-005 to 5.41065e-005
Heightened Def Con from 5.41086e-005 to 5.41096e-005
Heightened Def Con from 5.41239e-005 +to 5.4124e-005
Heightened Def Con from 5.41241e-005 ++to 5.41242e-005
Heightened Def Con from 5.41268e-005 to 5.41278e-005
Heightened Def Con from 5.41624e-005 +to 5.41634e-005
Heightened Def Con from 5.41634e-005 to 5.41644e-005
Heightened Def Con from 5.41644e-005 to 5.41645e-005
Heightened Def Con from 5.41647e-005 to 5.41648e-005
Heightened Def Con from 5.41648e-005 to 5.41658e-005
Heightened Def Con from 5.41748e-005 +to 5.41749e-005
Heightened Def Con from 5.42399e-005 to 5.42409e-005
Heightened Def Con from 5.42819e-005 to 5.42821e-005
Heightened Def Con from 5.42823e-005 to 5.42833e-005
Heightened Def Con from 5.42873e-005 to 5.42883e-005
Heightened Def Con from 5.429e-005 to 5.4291e-005
Heightened Def Con from 5.42974e-005 to 5.42984e-005
Heightened Def Con from 5.42984e-005 to 5.42994e-005
Heightened Def Con from 5.43081e-005 to 5.43083e-005
Heightened Def Con from 5.43085e-005 +to 5.43086e-005
Heightened Def Con from 5.43086e-005 to 5.43096e-005
Heightened Def Con from 5.43096e-005 to 5.43106e-005
Heightened Def Con from 5.43115e-005 to 5.43116e-005
Heightened Def Con from 5.43116e-005 to 5.43126e-005
Heightened Def Con from 5.43151e-005 to 5.43161e-005
Heightened Def Con from 5.43181e-005 to 5.43191e-005
Heightened Def Con from 5.43194e-005 to 5.43196e-005
Heightened Def Con from 5.43203e-005 to 5.43213e-005
Heightened Def Con from 5.43846e-005 to 5.43856e-005
Heightened Def Con from 5.44074e-005 to 5.44084e-005
Heightened Def Con from 5.44245e-005 to 5.44255e-005
Heightened Def Con from 5.44283e-005 +to 5.44293e-005
Heightened Def Con from 5.44713e-005 to 5.44723e-005
Heightened Def Con from 5.46963e-005 to 5.46973e-005
Heightened Def Con from 5.46991e-005 +to 5.47001e-005
Heightened Def Con from 5.47003e-005 to 5.47005e-005
Heightened Def Con from 5.47007e-005 to 5.47008e-005
Heightened Def Con from 5.47008e-005 +to 5.47018e-005
Heightened Def Con from 5.47132e-005 to 5.47133e-005
Heightened Def Con from 5.47136e-005 to 5.47137e-005
Heightened Def Con from 5.47146e-005 to 5.47156e-005
Heightened Def Con from 5.47176e-005 to 5.47186e-005
Heightened Def Con from 5.47186e-005 to 5.47196e-005
Heightened Def Con from 5.48617e-005 to 5.48627e-005
Heightened Def Con from 5.48709e-005 to 5.48719e-005
Heightened Def Con from 5.48744e-005 to 5.48754e-005
Heightened Def Con from 5.48779e-005 to 5.4878e-005
Heightened Def Con from 5.4878e-005 +to 5.4878e-005
Heightened Def Con from 5.4878e-005 to 5.48781e-005
Heightened Def Con from 5.49429e-005 to 5.49439e-005
Heightened Def Con from 5.49464e-005 to 5.49474e-005
Heightened Def Con from 5.49544e-005 to 5.49545e-005
Heightened Def Con from 5.49545e-005 to 5.49555e-005
Heightened Def Con from 5.49575e-005 to 5.49585e-005
Heightened Def Con from 5.49602e-005 to 5.49603e-005
Heightened Def Con from 5.49604e-005 to 5.49614e-005
Heightened Def Con from 5.49811e-005 to 5.49821e-005
Heightened Def Con from 5.50145e-005 to 5.50155e-005
Heightened Def Con from 5.50176e-005 +to 5.50186e-005
Heightened Def Con from 5.50189e-005 to 5.50199e-005
Heightened Def Con from 5.50269e-005 to 5.50279e-005
Heightened Def Con from 5.50419e-005 to 5.50429e-005
Heightened Def Con from 5.52409e-005 to 5.52419e-005
Heightened Def Con from 5.5242e-005 to 5.5243e-005
Heightened Def Con from 5.52476e-005 to 5.52477e-005
Heightened Def Con from 5.52477e-005 to 5.52487e-005
Heightened Def Con from 5.52508e-005 to 5.52518e-005
Heightened Def Con from 5.52518e-005 to 5.52519e-005
Heightened Def Con from 5.52522e-005 to 5.52523e-005
Heightened Def Con from 5.5254e-005 to 5.52542e-005
Heightened Def Con from 5.52546e-005 +to 5.52556e-005
Heightened Def Con from 5.5266e-005 to 5.52661e-005
Heightened Def Con from 5.52661e-005 to 5.52671e-005
Heightened Def Con from 5.52674e-005 to 5.52675e-005
Heightened Def Con from 5.52789e-005 to 5.5279e-005
Heightened Def Con from 5.52799e-005 to 5.52809e-005
Heightened Def Con from 5.52809e-005 to 5.52819e-005
Heightened Def Con from 5.58794e-005 to 5.58795e-005
Heightened Def Con from 5.588e-005 to 5.5881e-005
Heightened Def Con from 5.5888e-005 to 5.58881e-005
Heightened Def Con from 5.58881e-005 to 5.58891e-005
Heightened Def Con from 5.59051e-005 to 5.59061e-005
Heightened Def Con from 5.59096e-005 to 5.59097e-005
Heightened Def Con from 5.59097e-005 to 5.59099e-005
Heightened Def Con from 5.59151e-005 to 5.59161e-005
Heightened Def Con from 5.59164e-005 to 5.59174e-005
Heightened Def Con from 5.59179e-005 to 5.59189e-005
Heightened Def Con from 5.59191e-005 to 5.59201e-005
Heightened Def Con from 5.59363e-005 to 5.59373e-005
Heightened Def Con from 5.59433e-005 to 5.59435e-005
Heightened Def Con from 5.59435e-005 to 5.59435e-005
Heightened Def Con from 5.59435e-005 to 5.59445e-005
Heightened Def Con from 5.59446e-005 to 5.59456e-005
Heightened Def Con from 5.59463e-005 to 5.59464e-005
Heightened Def Con from 5.59502e-005 to 5.59504e-005
Heightened Def Con from 5.59504e-005 to 5.59514e-005
Heightened Def Con from 5.59536e-005 to 5.59537e-005
Heightened Def Con from 5.59598e-005 to 5.59608e-005
Heightened Def Con from 5.59681e-005 +to 5.59682e-005
Heightened Def Con from 5.5969e-005 to 5.597e-005
Heightened Def Con from 5.59853e-005 +to 5.59863e-005
Heightened Def Con from 5.5987e-005 to 5.59872e-005
Heightened Def Con from 5.59889e-005 to 5.59899e-005
Heightened Def Con from 5.59919e-005 to 5.59929e-005
Heightened Def Con from 5.6013e-005 to 5.60132e-005
Heightened Def Con from 5.60132e-005 to 5.60133e-005
Heightened Def Con from 5.60136e-005 to 5.60146e-005
Heightened Def Con from 5.60179e-005 to 5.60181e-005
Heightened Def Con from 5.60189e-005 to 5.60199e-005
Heightened Def Con from 5.60543e-005 to 5.60553e-005
Heightened Def Con from 5.60578e-005 +to 5.6058e-005
Heightened Def Con from 5.60657e-005 to 5.60667e-005
Heightened Def Con from 5.64894e-005 to 5.64904e-005
Heightened Def Con from 5.65e-005 to 5.65001e-005
Heightened Def Con from 5.65044e-005 to 5.65054e-005
Heightened Def Con from 5.65097e-005 +to 5.65107e-005
Heightened Def Con from 5.65198e-005 to 5.65199e-005
Heightened Def Con from 5.65202e-005 to 5.65212e-005
Heightened Def Con from 5.65248e-005 +to 5.65258e-005
Heightened Def Con from 5.65258e-005 to 5.65268e-005
Heightened Def Con from 5.65411e-005 to 5.65412e-005
Heightened Def Con from 5.6542e-005 to 5.65421e-005
Heightened Def Con from 5.65421e-005 to 5.65431e-005
Heightened Def Con from 5.6553e-005 to 5.6554e-005
Heightened Def Con from 5.6561e-005 to 5.6562e-005
Heightened Def Con from 5.65623e-005 to 5.65633e-005
Heightened Def Con from 5.65825e-005 to 5.65826e-005
Heightened Def Con from 5.65834e-005 to 5.65835e-005
Heightened Def Con from 5.65838e-005 to 5.65839e-005
Heightened Def Con from 5.65859e-005 to 5.6586e-005
Heightened Def Con from 5.6586e-005 to 5.6587e-005
Heightened Def Con from 5.65945e-005 to 5.65946e-005
Heightened Def Con from 5.65946e-005 to 5.65956e-005
Heightened Def Con from 5.73948e-005 to 5.73958e-005
Heightened Def Con from 5.73959e-005 to 5.7396e-005
Heightened Def Con from 5.7396e-005 to 5.7397e-005
Heightened Def Con from 5.73996e-005 to 5.74006e-005
Heightened Def Con from 5.74072e-005 to 5.74073e-005
Heightened Def Con from 5.74082e-005 to 5.74092e-005
Heightened Def Con from 5.74094e-005 +to 5.74104e-005
Heightened Def Con from 5.7622e-005 to 5.76221e-005
Heightened Def Con from 5.76224e-005 to 5.76225e-005
Heightened Def Con from 5.76227e-005 to 5.76237e-005
Heightened Def Con from 5.76257e-005 to 5.76267e-005
Heightened Def Con from 5.76268e-005 to 5.76269e-005
Heightened Def Con from 5.76272e-005 to 5.76273e-005
Heightened Def Con from 5.76281e-005 to 5.76291e-005
Heightened Def Con from 5.76312e-005 to 5.76322e-005
Heightened Def Con from 5.76943e-005 to 5.76953e-005
Heightened Def Con from 5.76953e-005 to 5.76954e-005
Heightened Def Con from 5.76972e-005 to 5.76982e-005
Heightened Def Con from 5.76982e-005 to 5.76983e-005
Heightened Def Con from 5.76995e-005 to 5.76995e-005
Heightened Def Con from 5.76996e-005 to 5.77006e-005
Heightened Def Con from 5.77006e-005 to 5.77007e-005
Heightened Def Con from 5.77008e-005 to 5.77018e-005
Heightened Def Con from 5.77078e-005 to 5.77079e-005
Heightened Def Con from 5.77079e-005 to 5.77089e-005
Heightened Def Con from 5.77398e-005 +to 5.77408e-005
Heightened Def Con from 5.77447e-005 to 5.77457e-005
Heightened Def Con from 5.77479e-005 to 5.77489e-005
Heightened Def Con from 5.80289e-005 to 5.80299e-005
Heightened Def Con from 5.8032e-005 to 5.8033e-005
Heightened Def Con from 5.8033e-005 to 5.80331e-005
Heightened Def Con from 5.80334e-005 to 5.80344e-005
Heightened Def Con from 5.80344e-005 to 5.80345e-005
Heightened Def Con from 5.80354e-005 to 5.80355e-005
Heightened Def Con from 5.80358e-005 to 5.80359e-005
Heightened Def Con from 5.80477e-005 to 5.80479e-005
Heightened Def Con from 5.81381e-005 +to 5.81382e-005
Heightened Def Con from 5.82406e-005 to 5.82407e-005
Heightened Def Con from 5.83888e-005 to 5.83889e-005
Heightened Def Con from 5.8392e-005 to 5.8393e-005
Heightened Def Con from 5.8393e-005 to 5.8394e-005
Heightened Def Con from 5.83948e-005 to 5.83958e-005
Heightened Def Con from 5.8396e-005 to 5.8397e-005
Heightened Def Con from 5.83988e-005 to 5.83989e-005
Heightened Def Con from 5.83989e-005 to 5.83999e-005
Heightened Def Con from 5.83999e-005 +to 5.84e-005
Heightened Def Con from 5.84057e-005 to 5.84059e-005
Heightened Def Con from 5.84059e-005 +to 5.8406e-005
Heightened Def Con from 5.8406e-005 to 5.8406e-005
Heightened Def Con from 5.8406e-005 to 5.8407e-005
Heightened Def Con from 5.8427e-005 to 5.8428e-005
Heightened Def Con from 5.84439e-005 to 5.84449e-005
Heightened Def Con from 5.84487e-005 to 5.84497e-005
Heightened Def Con from 5.84526e-005 to 5.84526e-005
Heightened Def Con from 5.84526e-005 +to 5.84536e-005
Heightened Def Con from 5.84556e-005 to 5.84566e-005
Heightened Def Con from 5.90814e-005 to 5.90824e-005
Heightened Def Con from 5.91308e-005 to 5.9131e-005
Heightened Def Con from 5.9131e-005 to 5.9132e-005
Heightened Def Con from 5.91502e-005 to 5.91512e-005
Heightened Def Con from 5.91512e-005 to 5.91522e-005
Heightened Def Con from 5.91662e-005 to 5.91672e-005
Heightened Def Con from 5.9182e-005 to 5.9183e-005
Heightened Def Con from 5.91842e-005 to 5.91852e-005
Heightened Def Con from 5.91966e-005 to 5.91967e-005
Heightened Def Con from 5.92573e-005 to 5.92574e-005
Heightened Def Con from 5.93493e-005 to 5.93495e-005
Heightened Def Con from 5.93495e-005 +to 5.93505e-005
Heightened Def Con from 5.94301e-005 to 5.94302e-005
Heightened Def Con from 5.9431e-005 ++to 5.94311e-005
Heightened Def Con from 5.94316e-005 to 5.94317e-005
Heightened Def Con from 5.94317e-005 +to 5.94318e-005
Heightened Def Con from 5.95976e-005 ++to 5.95986e-005
Heightened Def Con from 5.95986e-005 to 5.95988e-005
Heightened Def Con from 5.95995e-005 to 5.95996e-005
Heightened Def Con from 5.95996e-005 to 5.96006e-005
Heightened Def Con from 5.96085e-005 to 5.96095e-005
Heightened Def Con from 5.96125e-005 +to 5.96135e-005
Heightened Def Con from 5.96135e-005 to 5.96137e-005
Heightened Def Con from 5.99094e-005 to 5.99104e-005
Heightened Def Con from 6.00279e-005 to 6.00289e-005
Heightened Def Con from 6.00349e-005 to 6.0035e-005
Heightened Def Con from 6.00353e-005 to 6.00354e-005
Heightened Def Con from 6.00374e-005 to 6.00375e-005
Heightened Def Con from 6.00378e-005 to 6.00388e-005
Heightened Def Con from 6.00392e-005 to 6.00394e-005
Heightened Def Con from 6.00394e-005 to 6.00404e-005
Heightened Def Con from 6.04073e-005 to 6.04083e-005
Heightened Def Con from 6.04104e-005 to 6.04114e-005
Heightened Def Con from 6.04134e-005 to 6.04144e-005
Heightened Def Con from 6.04164e-005 to 6.04174e-005
Heightened Def Con from 6.04265e-005 to 6.04266e-005
Heightened Def Con from 6.04268e-005 to 6.04278e-005
Heightened Def Con from 6.04278e-005 to 6.04288e-005
Heightened Def Con from 6.05593e-005 to 6.05603e-005
Heightened Def Con from 6.06399e-005 to 6.06399e-005
Heightened Def Con from 6.06399e-005 to 6.064e-005
Heightened Def Con from 6.064e-005 to 6.0641e-005
Heightened Def Con from 6.06432e-005 to 6.06442e-005
Heightened Def Con from 6.06485e-005 to 6.06495e-005
Heightened Def Con from 6.06495e-005 to 6.06505e-005
Heightened Def Con from 6.06505e-005 to 6.06506e-005
Heightened Def Con from 6.06527e-005 to 6.06537e-005
Heightened Def Con from 6.06557e-005 to 6.06558e-005
Heightened Def Con from 6.06579e-005 +to 6.06589e-005
Heightened Def Con from 6.06597e-005 to 6.06607e-005
Heightened Def Con from 6.0955e-005 to 6.09551e-005
Heightened Def Con from 6.0956e-005 to 6.09561e-005
Heightened Def Con from 6.09561e-005 to 6.09562e-005
Heightened Def Con from 6.09565e-005 to 6.09566e-005
Heightened Def Con from 6.09569e-005 to 6.0957e-005
Heightened Def Con from 6.0957e-005 to 6.09571e-005
Heightened Def Con from 6.09571e-005 to 6.09573e-005
Heightened Def Con from 6.09581e-005 to 6.09591e-005
Heightened Def Con from 6.09686e-005 to 6.09688e-005
Heightened Def Con from 6.09766e-005 to 6.09767e-005
Heightened Def Con from 6.09789e-005 to 6.09799e-005
Heightened Def Con from 6.10061e-005 to 6.10071e-005
Heightened Def Con from 6.10071e-005 to 6.10072e-005
Heightened Def Con from 6.10097e-005 to 6.10098e-005
Heightened Def Con from 6.10098e-005 to 6.10099e-005
Heightened Def Con from 6.10099e-005 to 6.10109e-005
Heightened Def Con from 6.10109e-005 +to 6.10119e-005
Heightened Def Con from 6.10198e-005 to 6.10208e-005
Heightened Def Con from 6.10287e-005 to 6.10297e-005
Heightened Def Con from 6.13817e-005 to 6.13818e-005
Heightened Def Con from 6.13818e-005 to 6.13828e-005
Heightened Def Con from 6.13828e-005 to 6.13829e-005
Heightened Def Con from 6.13829e-005 ++to 6.13839e-005
Heightened Def Con from 6.13878e-005 +to 6.13879e-005
Heightened Def Con from 6.1388e-005 to 6.1389e-005
Heightened Def Con from 6.13906e-005 to 6.13906e-005
Heightened Def Con from 6.13906e-005 to 6.13916e-005
Heightened Def Con from 6.15176e-005 +to 6.15186e-005
Heightened Def Con from 6.15186e-005 to 6.15196e-005
Heightened Def Con from 6.15375e-005 +to 6.15376e-005
Heightened Def Con from 6.15378e-005 to 6.15388e-005
Heightened Def Con from 6.15388e-005 to 6.1539e-005
Heightened Def Con from 6.1539e-005 to 6.154e-005
Heightened Def Con from 6.15418e-005 +to 6.15428e-005
Heightened Def Con from 6.16583e-005 to 6.16583e-005
Heightened Def Con from 6.16583e-005 to 6.16593e-005
Heightened Def Con from 6.16613e-005 to 6.16623e-005
Heightened Def Con from 6.16623e-005 to 6.16633e-005
Heightened Def Con from 6.16633e-005 to 6.16635e-005
Heightened Def Con from 6.16637e-005 to 6.16638e-005
Heightened Def Con from 6.16638e-005 to 6.16648e-005
Heightened Def Con from 6.16648e-005 to 6.16649e-005
Heightened Def Con from 6.16649e-005 to 6.16659e-005
Heightened Def Con from 6.16727e-005 +to 6.16737e-005
Heightened Def Con from 6.16738e-005 to 6.16748e-005
Heightened Def Con from 6.1682e-005 to 6.16821e-005
Heightened Def Con from 6.16824e-005 to 6.16834e-005
Heightened Def Con from 6.17289e-005 to 6.1729e-005
Heightened Def Con from 6.17363e-005 to 6.17373e-005
Heightened Def Con from 6.17522e-005 to 6.17532e-005
Heightened Def Con from 6.17534e-005 to 6.17544e-005
Heightened Def Con from 6.17544e-005 to 6.17554e-005
Heightened Def Con from 6.17581e-005 to 6.17582e-005
Heightened Def Con from 6.17593e-005 to 6.17603e-005
Heightened Def Con from 6.17625e-005 to 6.17635e-005
Heightened Def Con from 6.17655e-005 to 6.17665e-005
Heightened Def Con from 6.1769e-005 ++to 6.177e-005
Heightened Def Con from 6.2316e-005 to 6.2317e-005
Heightened Def Con from 6.2317e-005 to 6.2318e-005
Heightened Def Con from 6.23486e-005 to 6.23496e-005
Heightened Def Con from 6.23656e-005 to 6.23666e-005
Heightened Def Con from 6.23669e-005 to 6.2367e-005
Heightened Def Con from 6.23691e-005 to 6.23701e-005
Heightened Def Con from 6.23771e-005 to 6.23781e-005
Heightened Def Con from 6.24291e-005 to 6.24301e-005
Heightened Def Con from 6.24531e-005 to 6.24532e-005
Heightened Def Con from 6.24535e-005 to 6.24536e-005
Heightened Def Con from 6.24536e-005 to 6.24537e-005
Heightened Def Con from 6.24616e-005 to 6.24626e-005
Heightened Def Con from 6.25308e-005 to 6.2531e-005
Heightened Def Con from 6.2531e-005 to 6.2532e-005
Heightened Def Con from 6.2539e-005 to 6.254e-005
Heightened Def Con from 6.25429e-005 to 6.25429e-005
Heightened Def Con from 6.25429e-005 to 6.2543e-005
Heightened Def Con from 6.25525e-005 to 6.25527e-005
Heightened Def Con from 6.25544e-005 to 6.25554e-005
Heightened Def Con from 6.25554e-005 to 6.25564e-005
Heightened Def Con from 6.25625e-005 to 6.25635e-005
Heightened Def Con from 6.25684e-005 to 6.25694e-005
Heightened Def Con from 6.25694e-005 to 6.25704e-005
Heightened Def Con from 6.25729e-005 to 6.2573e-005
Heightened Def Con from 6.2573e-005 to 6.25731e-005
Heightened Def Con from 6.25731e-005 to 6.25741e-005
Heightened Def Con from 6.25767e-005 to 6.25777e-005
Heightened Def Con from 6.25841e-005 +to 6.25851e-005
Heightened Def Con from 6.25911e-005 to 6.25912e-005
Heightened Def Con from 6.2592e-005 to 6.25921e-005
Heightened Def Con from 6.25921e-005 to 6.25922e-005
Heightened Def Con from 6.25927e-005 +to 6.25937e-005
Heightened Def Con from 6.26182e-005 to 6.26192e-005
Heightened Def Con from 6.26217e-005 to 6.26218e-005
Heightened Def Con from 6.26269e-005 to 6.2627e-005
Heightened Def Con from 6.26658e-005 to 6.26668e-005
Heightened Def Con from 6.26668e-005 to 6.26678e-005
Heightened Def Con from 6.26678e-005 to 6.26688e-005
Heightened Def Con from 6.26696e-005 to 6.26697e-005
Heightened Def Con from 6.26776e-005 +to 6.26786e-005
Heightened Def Con from 6.26793e-005 to 6.26803e-005
Heightened Def Con from 6.26828e-005 to 6.26838e-005
Heightened Def Con from 6.26842e-005 to 6.26852e-005
Heightened Def Con from 6.26855e-005 to 6.26856e-005
Heightened Def Con from 6.26876e-005 +to 6.26886e-005
Heightened Def Con from 6.26886e-005 to 6.26896e-005
Heightened Def Con from 6.27036e-005 to 6.27046e-005
Heightened Def Con from 6.27204e-005 to 6.27205e-005
Heightened Def Con from 6.27205e-005 to 6.27215e-005
Heightened Def Con from 6.27236e-005 to 6.27246e-005
Heightened Def Con from 6.27334e-005 +to 6.27344e-005
Heightened Def Con from 6.27344e-005 to 6.27354e-005
Heightened Def Con from 6.27374e-005 to 6.27384e-005
Heightened Def Con from 6.27384e-005 to 6.27394e-005
Heightened Def Con from 6.27394e-005 to 6.27395e-005
Heightened Def Con from 6.27442e-005 to 6.27443e-005
Heightened Def Con from 6.27448e-005 to 6.27448e-005
Heightened Def Con from 6.27448e-005 to 6.27458e-005
Heightened Def Con from 6.2748e-005 to 6.2749e-005
Heightened Def Con from 6.2751e-005 to 6.2752e-005
Heightened Def Con from 6.2752e-005 to 6.27522e-005
Heightened Def Con from 6.27525e-005 to 6.27535e-005
Heightened Def Con from 6.27536e-005 to 6.27546e-005
Heightened Def Con from 6.27686e-005 to 6.27696e-005
Heightened Def Con from 6.27698e-005 to 6.27699e-005
Heightened Def Con from 6.27717e-005 to 6.27718e-005
Heightened Def Con from 6.27723e-005 to 6.27733e-005
Heightened Def Con from 6.27733e-005 to 6.27733e-005
Heightened Def Con from 6.27733e-005 to 6.27743e-005
Heightened Def Con from 6.27813e-005 to 6.27813e-005
Heightened Def Con from 6.27813e-005 +to 6.27823e-005
Heightened Def Con from 6.28353e-005 to 6.28363e-005
Heightened Def Con from 6.28375e-005 +to 6.28385e-005
Heightened Def Con from 6.28545e-005 to 6.28555e-005
Heightened Def Con from 6.2858e-005 to 6.2859e-005
Heightened Def Con from 6.2859e-005 to 6.28592e-005
Heightened Def Con from 6.28612e-005 +to 6.28613e-005
Heightened Def Con from 6.28657e-005 to 6.28667e-005
Heightened Def Con from 6.29927e-005 to 6.29937e-005
Heightened Def Con from 6.29997e-005 to 6.29998e-005
Heightened Def Con from 6.30365e-005 to 6.30375e-005
Heightened Def Con from 6.30387e-005 to 6.30388e-005
Heightened Def Con from 6.30397e-005 to 6.30407e-005
Heightened Def Con from 6.32953e-005 to 6.32963e-005
Heightened Def Con from 6.32984e-005 to 6.32994e-005
Heightened Def Con from 6.33019e-005 to 6.3302e-005
Heightened Def Con from 6.33058e-005 to 6.33068e-005
Heightened Def Con from 6.33832e-005 +to 6.33842e-005
Heightened Def Con from 6.33867e-005 to 6.33877e-005
Heightened Def Con from 6.34037e-005 to 6.34047e-005
Heightened Def Con from 6.34137e-005 to 6.34137e-005
Heightened Def Con from 6.34137e-005 to 6.34147e-005
Heightened Def Con from 6.34172e-005 to 6.34174e-005
Heightened Def Con from 6.34174e-005 +to 6.34175e-005
Heightened Def Con from 6.34177e-005 to 6.34179e-005
Heightened Def Con from 6.34199e-005 to 6.34209e-005
Heightened Def Con from 6.34212e-005 ++to 6.34212e-005
Heightened Def Con from 6.34212e-005 to 6.34213e-005
Heightened Def Con from 6.34218e-005 to 6.34228e-005
Heightened Def Con from 6.34333e-005 to 6.34333e-005
Heightened Def Con from 6.34333e-005 to 6.34334e-005
Heightened Def Con from 6.34334e-005 to 6.34344e-005
Heightened Def Con from 6.34353e-005 +to 6.34354e-005
Heightened Def Con from 6.34385e-005 to 6.34395e-005
Heightened Def Con from 6.3442e-005 to 6.3443e-005
Heightened Def Con from 6.3459e-005 to 6.34592e-005
Heightened Def Con from 6.34599e-005 to 6.346e-005
Heightened Def Con from 6.34603e-005 to 6.34604e-005
Heightened Def Con from 6.34622e-005 to 6.34632e-005
Heightened Def Con from 6.34632e-005 to 6.34642e-005
Heightened Def Con from 6.34675e-005 to 6.34685e-005
Heightened Def Con from 6.34714e-005 to 6.34724e-005
Heightened Def Con from 6.34724e-005 to 6.34734e-005
Heightened Def Con from 6.34738e-005 to 6.34748e-005
Heightened Def Con from 6.34786e-005 to 6.34796e-005
Heightened Def Con from 6.34796e-005 to 6.34798e-005
Heightened Def Con from 6.34853e-005 to 6.34863e-005
Heightened Def Con from 6.34863e-005 to 6.34865e-005
Heightened Def Con from 6.34869e-005 to 6.34879e-005
Heightened Def Con from 6.349e-005 to 6.3491e-005
Heightened Def Con from 6.3491e-005 to 6.3492e-005
Heightened Def Con from 6.36346e-005 to 6.36356e-005
Heightened Def Con from 6.36382e-005 to 6.36384e-005
Heightened Def Con from 6.36384e-005 to 6.36385e-005
Heightened Def Con from 6.36403e-005 to 6.36413e-005
Heightened Def Con from 6.36433e-005 to 6.36443e-005
Heightened Def Con from 6.36444e-005 to 6.36454e-005
Heightened Def Con from 6.36471e-005 to 6.36481e-005
Heightened Def Con from 6.3651e-005 to 6.36511e-005
Heightened Def Con from 6.36518e-005 to 6.36528e-005
Heightened Def Con from 6.36968e-005 ++to 6.36969e-005
Heightened Def Con from 6.38583e-005 to 6.38593e-005
Heightened Def Con from 6.42051e-005 to 6.42053e-005
Heightened Def Con from 6.42083e-005 to 6.42093e-005
Heightened Def Con from 6.42114e-005 to 6.42114e-005
Heightened Def Con from 6.42114e-005 to 6.42124e-005
Heightened Def Con from 6.42127e-005 to 6.42137e-005
Heightened Def Con from 6.42198e-005 to 6.42199e-005
Heightened Def Con from 6.42202e-005 to 6.42203e-005
Heightened Def Con from 6.42207e-005 to 6.42217e-005
Heightened Def Con from 6.4226e-005 to 6.42261e-005
Heightened Def Con from 6.4227e-005 to 6.4228e-005
Heightened Def Con from 6.42396e-005 to 6.42397e-005
Heightened Def Con from 6.424e-005 to 6.4241e-005
Heightened Def Con from 6.42476e-005 +to 6.42477e-005
Heightened Def Con from 6.42478e-005 to 6.42488e-005
Heightened Def Con from 6.42488e-005 to 6.42498e-005
Heightened Def Con from 6.425e-005 to 6.4251e-005
Heightened Def Con from 6.4251e-005 to 6.4251e-005
Heightened Def Con from 6.42511e-005 to 6.42521e-005
Heightened Def Con from 6.42582e-005 to 6.42592e-005
Heightened Def Con from 6.43041e-005 to 6.43051e-005
Heightened Def Con from 6.43054e-005 to 6.43064e-005
Heightened Def Con from 6.43064e-005 +to 6.43074e-005
Heightened Def Con from 6.43074e-005 to 6.43075e-005
Heightened Def Con from 6.4308e-005 to 6.4309e-005
Heightened Def Con from 6.43155e-005 to 6.43165e-005
Heightened Def Con from 6.5359e-005 to 6.53591e-005
Heightened Def Con from 6.53593e-005 to 6.53595e-005
Heightened Def Con from 6.53595e-005 to 6.53596e-005
Heightened Def Con from 6.53596e-005 to 6.53606e-005
Heightened Def Con from 6.53617e-005 to 6.53617e-005
Heightened Def Con from 6.53617e-005 to 6.53617e-005
Heightened Def Con from 6.53618e-005 to 6.53619e-005
Heightened Def Con from 6.53619e-005 to 6.53629e-005
Heightened Def Con from 6.53632e-005 to 6.53642e-005
Heightened Def Con from 6.53642e-005 to 6.53652e-005
Heightened Def Con from 6.53677e-005 to 6.53687e-005
Heightened Def Con from 6.53687e-005 to 6.53697e-005
Heightened Def Con from 6.53706e-005 to 6.53716e-005
Heightened Def Con from 6.53856e-005 to 6.53866e-005
Heightened Def Con from 6.53886e-005 to 6.53896e-005
Heightened Def Con from 6.54526e-005 to 6.54527e-005
Heightened Def Con from 6.54527e-005 to 6.54537e-005
Heightened Def Con from 6.54607e-005 to 6.54609e-005
Heightened Def Con from 6.54609e-005 to 6.5461e-005
Heightened Def Con from 6.5461e-005 to 6.54611e-005
Heightened Def Con from 6.54614e-005 +to 6.54624e-005
Heightened Def Con from 6.54644e-005 to 6.54646e-005
Heightened Def Con from 6.54659e-005 +to 6.54669e-005
Heightened Def Con from 6.54672e-005 to 6.54682e-005
Heightened Def Con from 6.54707e-005 to 6.54717e-005
Heightened Def Con from 6.54927e-005 +to 6.54937e-005
Heightened Def Con from 6.5494e-005 to 6.54942e-005
Heightened Def Con from 6.54942e-005 to 6.54943e-005
Heightened Def Con from 6.54943e-005 +to 6.54953e-005
Heightened Def Con from 6.5503e-005 +to 6.55032e-005
Heightened Def Con from 6.5504e-005 to 6.5505e-005
Heightened Def Con from 6.5505e-005 +to 6.55052e-005
Heightened Def Con from 6.55054e-005 to 6.55055e-005
Heightened Def Con from 6.55063e-005 to 6.55073e-005
Heightened Def Con from 6.55134e-005 +to 6.55135e-005
Heightened Def Con from 6.55138e-005 to 6.55148e-005
Heightened Def Con from 6.55214e-005 to 6.55224e-005
Heightened Def Con from 6.55289e-005 +to 6.5529e-005
Heightened Def Con from 6.55295e-005 +to 6.55296e-005
Heightened Def Con from 6.55296e-005 to 6.55306e-005
Heightened Def Con from 6.55327e-005 to 6.55328e-005
Heightened Def Con from 6.55328e-005 to 6.5533e-005
Heightened Def Con from 6.55578e-005 to 6.55579e-005
Heightened Def Con from 6.55579e-005 to 6.55589e-005
Heightened Def Con from 6.55668e-005 ++to 6.55678e-005
Heightened Def Con from 6.55685e-005 to 6.55695e-005
Heightened Def Con from 6.55734e-005 to 6.55735e-005
Heightened Def Con from 6.55743e-005 to 6.55753e-005
Heightened Def Con from 6.55858e-005 to 6.55868e-005
Heightened Def Con from 6.55888e-005 to 6.55898e-005
Heightened Def Con from 6.55918e-005 to 6.55928e-005
Heightened Def Con from 6.55944e-005 +to 6.55946e-005
Heightened Def Con from 6.55946e-005 to 6.55956e-005
Heightened Def Con from 6.55956e-005 to 6.55966e-005
Heightened Def Con from 6.56141e-005 to 6.56151e-005
Heightened Def Con from 6.56189e-005 to 6.56199e-005
Heightened Def Con from 6.56226e-005 to 6.56236e-005
Heightened Def Con from 6.56413e-005 to 6.56423e-005
Heightened Def Con from 6.56448e-005 to 6.56458e-005
Heightened Def Con from 6.56458e-005 to 6.56459e-005
Heightened Def Con from 6.56459e-005 to 6.56469e-005
Heightened Def Con from 6.56483e-005 to 6.56493e-005
Heightened Def Con from 6.57213e-005 to 6.57214e-005
Heightened Def Con from 6.57216e-005 to 6.57218e-005
Heightened Def Con from 6.57225e-005 to 6.57226e-005
Heightened Def Con from 6.57226e-005 to 6.57227e-005
Heightened Def Con from 6.57231e-005 to 6.57241e-005
Heightened Def Con from 6.57381e-005 +to 6.57391e-005
Heightened Def Con from 6.57732e-005 to 6.57733e-005
Heightened Def Con from 6.57736e-005 to 6.57746e-005
Heightened Def Con from 6.57781e-005 to 6.57791e-005
Heightened Def Con from 6.57799e-005 +to 6.57809e-005
Heightened Def Con from 6.68754e-005 to 6.68764e-005
Heightened Def Con from 6.68764e-005 to 6.68774e-005
Heightened Def Con from 6.68774e-005 +to 6.68784e-005
Heightened Def Con from 6.68796e-005 +to 6.68797e-005
Heightened Def Con from 6.68972e-005 to 6.68982e-005
Heightened Def Con from 6.69002e-005 to 6.69012e-005
Heightened Def Con from 6.6902e-005 to 6.6902e-005
Heightened Def Con from 6.6902e-005 to 6.6903e-005
Heightened Def Con from 6.69037e-005 to 6.69047e-005
Heightened Def Con from 6.69187e-005 to 6.69189e-005
Heightened Def Con from 6.69192e-005 to 6.69193e-005
Heightened Def Con from 6.69211e-005 to 6.69221e-005
Heightened Def Con from 6.69267e-005 to 6.69269e-005
Heightened Def Con from 6.69271e-005 to 6.69281e-005
Heightened Def Con from 6.69596e-005 to 6.69606e-005
Heightened Def Con from 6.69606e-005 to 6.69616e-005
Heightened Def Con from 6.69936e-005 to 6.69946e-005
Heightened Def Con from 6.70006e-005 to 6.70006e-005
Heightened Def Con from 6.70006e-005 to 6.70016e-005
Heightened Def Con from 6.70038e-005 to 6.70048e-005
Heightened Def Con from 6.70243e-005 to 6.70253e-005
Heightened Def Con from 6.70255e-005 to 6.70257e-005
Heightened Def Con from 6.7026e-005 to 6.7027e-005
Heightened Def Con from 6.7027e-005 to 6.70271e-005
Heightened Def Con from 6.70274e-005 to 6.70275e-005
Heightened Def Con from 6.70326e-005 to 6.70336e-005
Heightened Def Con from 6.70497e-005 to 6.70507e-005
Heightened Def Con from 6.70808e-005 to 6.70818e-005
Heightened Def Con from 6.70818e-005 to 6.70828e-005
Heightened Def Con from 6.70892e-005 +to 6.70902e-005
Heightened Def Con from 6.70968e-005 to 6.70978e-005
Heightened Def Con from 6.72286e-005 to 6.72296e-005
Heightened Def Con from 6.72296e-005 to 6.72298e-005
Heightened Def Con from 6.72686e-005 to 6.72696e-005
Heightened Def Con from 6.72716e-005 to 6.72717e-005
Heightened Def Con from 6.72717e-005 to 6.72727e-005
Heightened Def Con from 6.72735e-005 to 6.72745e-005
Heightened Def Con from 6.74066e-005 to 6.74076e-005
Heightened Def Con from 6.74243e-005 to 6.74243e-005
Heightened Def Con from 6.74243e-005 to 6.74253e-005
Heightened Def Con from 6.7427e-005 to 6.74271e-005
Heightened Def Con from 6.74272e-005 +to 6.74273e-005
Heightened Def Con from 6.74285e-005 to 6.74295e-005
Heightened Def Con from 6.74317e-005 to 6.74327e-005
Heightened Def Con from 6.74371e-005 to 6.74372e-005
Heightened Def Con from 6.74502e-005 to 6.74503e-005
Heightened Def Con from 6.74503e-005 to 6.74513e-005
Heightened Def Con from 6.74516e-005 to 6.74517e-005
Heightened Def Con from 6.74517e-005 to 6.74527e-005
Heightened Def Con from 6.74591e-005 to 6.74601e-005
Heightened Def Con from 6.75222e-005 to 6.75223e-005
Heightened Def Con from 6.75234e-005 to 6.75244e-005
Heightened Def Con from 6.75248e-005 to 6.75248e-005
Heightened Def Con from 6.75248e-005 to 6.75248e-005
Heightened Def Con from 6.75248e-005 to 6.75249e-005
Heightened Def Con from 6.75252e-005 to 6.75262e-005
Heightened Def Con from 6.7527e-005 to 6.75271e-005
Heightened Def Con from 6.75289e-005 to 6.7529e-005
Heightened Def Con from 6.75347e-005 to 6.75348e-005
Heightened Def Con from 6.7535e-005 to 6.7536e-005
Heightened Def Con from 6.75407e-005 to 6.75409e-005
Heightened Def Con from 6.75416e-005 to 6.75426e-005
Heightened Def Con from 6.75429e-005 to 6.75439e-005
Heightened Def Con from 6.75442e-005 to 6.75452e-005
Heightened Def Con from 6.75463e-005 to 6.75473e-005
Heightened Def Con from 6.7551e-005 to 6.75511e-005
Heightened Def Con from 6.75511e-005 to 6.75521e-005
Heightened Def Con from 6.75546e-005 to 6.75548e-005
Heightened Def Con from 6.75548e-005 to 6.75558e-005
Heightened Def Con from 6.75569e-005 to 6.75579e-005
Heightened Def Con from 6.75579e-005 to 6.75581e-005
Heightened Def Con from 6.75598e-005 to 6.75608e-005
Heightened Def Con from 6.75611e-005 to 6.75613e-005
Heightened Def Con from 6.75621e-005 to 6.75623e-005
Heightened Def Con from 6.75623e-005 to 6.75633e-005
Heightened Def Con from 6.75633e-005 to 6.75643e-005
Heightened Def Con from 6.75724e-005 to 6.75734e-005
Heightened Def Con from 6.76437e-005 to 6.76447e-005
Heightened Def Con from 6.76591e-005 to 6.76601e-005
Heightened Def Con from 6.76604e-005 to 6.76614e-005
Heightened Def Con from 6.76649e-005 to 6.76659e-005
Heightened Def Con from 6.76679e-005 to 6.7668e-005
Heightened Def Con from 6.76698e-005 to 6.76708e-005
Heightened Def Con from 6.77032e-005 to 6.77034e-005
Heightened Def Con from 6.77036e-005 to 6.77037e-005
Heightened Def Con from 6.77075e-005 to 6.77076e-005
Heightened Def Con from 6.77164e-005 to 6.77174e-005
Heightened Def Con from 6.77176e-005 to 6.77186e-005
Heightened Def Con from 6.77206e-005 to 6.77207e-005
Heightened Def Con from 6.77207e-005 to 6.77208e-005
Heightened Def Con from 6.77208e-005 to 6.77218e-005
Heightened Def Con from 6.7722e-005 to 6.7723e-005
Heightened Def Con from 6.7725e-005 to 6.7726e-005
Heightened Def Con from 6.7732e-005 to 6.77321e-005
Heightened Def Con from 6.77339e-005 to 6.77349e-005
Heightened Def Con from 6.77349e-005 to 6.77359e-005
Heightened Def Con from 6.77379e-005 to 6.77389e-005
Heightened Def Con from 6.77409e-005 +to 6.77419e-005
Heightened Def Con from 6.98721e-005 to 6.98722e-005
Heightened Def Con from 6.98722e-005 to 6.98723e-005
Heightened Def Con from 6.98723e-005 to 6.98733e-005
Heightened Def Con from 6.98839e-005 to 6.98849e-005
Heightened Def Con from 6.98905e-005 to 6.98907e-005
Heightened Def Con from 6.98907e-005 to 6.98917e-005
Heightened Def Con from 6.9969e-005 +to 6.997e-005
Heightened Def Con from 7.0061e-005 to 7.00611e-005
Heightened Def Con from 7.00611e-005 to 7.00613e-005
Heightened Def Con from 7.00613e-005 to 7.00623e-005
Heightened Def Con from 7.00662e-005 to 7.00672e-005
Heightened Def Con from 7.00693e-005 to 7.00703e-005
Heightened Def Con from 7.00728e-005 +to 7.00729e-005
Heightened Def Con from 7.00747e-005 to 7.00757e-005
Heightened Def Con from 7.00757e-005 to 7.00767e-005
Heightened Def Con from 7.00942e-005 to 7.00943e-005
Heightened Def Con from 7.00944e-005 to 7.00954e-005
Heightened Def Con from 7.00967e-005 to 7.00977e-005
Heightened Def Con from 7.0098e-005 to 7.0099e-005
Heightened Def Con from 7.0105e-005 to 7.01051e-005
Heightened Def Con from 7.01051e-005 to 7.01061e-005
Heightened Def Con from 7.01131e-005 to 7.01132e-005
Heightened Def Con from 7.01141e-005 +to 7.01151e-005
Heightened Def Con from 7.01171e-005 to 7.01172e-005
Heightened Def Con from 7.01173e-005 +to 7.01173e-005
Heightened Def Con from 7.01173e-005 +to 7.01183e-005
Heightened Def Con from 7.01185e-005 to 7.01195e-005
Heightened Def Con from 7.01195e-005 to 7.01205e-005
Heightened Def Con from 7.0121e-005 to 7.0122e-005
Heightened Def Con from 7.0122e-005 to 7.0123e-005
Heightened Def Con from 7.01265e-005 to 7.01275e-005
Heightened Def Con from 7.01282e-005 to 7.01292e-005
Heightened Def Con from 7.01326e-005 to 7.01336e-005
Heightened Def Con from 7.01336e-005 to 7.01337e-005
Heightened Def Con from 7.01644e-005 to 7.01654e-005
Heightened Def Con from 7.01654e-005 to 7.01664e-005
Heightened Def Con from 7.01664e-005 to 7.01665e-005
Heightened Def Con from 7.01669e-005 to 7.01669e-005
Heightened Def Con from 7.0167e-005 to 7.0168e-005
Heightened Def Con from 7.01705e-005 to 7.01706e-005
Heightened Def Con from 7.01707e-005 to 7.01708e-005
Heightened Def Con from 7.0175e-005 to 7.0176e-005
Heightened Def Con from 7.0211e-005 to 7.0212e-005
Heightened Def Con from 7.0212e-005 to 7.0213e-005
Heightened Def Con from 7.02164e-005 to 7.02165e-005
Heightened Def Con from 7.02207e-005 to 7.02217e-005
Heightened Def Con from 7.02217e-005 to 7.02227e-005
Heightened Def Con from 7.02227e-005 to 7.02237e-005
Heightened Def Con from 7.02359e-005 +to 7.0236e-005
Heightened Def Con from 7.0239e-005 to 7.024e-005
Heightened Def Con from 7.0242e-005 to 7.0243e-005
Heightened Def Con from 7.02435e-005 to 7.02445e-005
Heightened Def Con from 7.0282e-005 to 7.0283e-005
Heightened Def Con from 7.02833e-005 to 7.02843e-005
Heightened Def Con from 7.02983e-005 to 7.02984e-005
Heightened Def Con from 7.03013e-005 to 7.03023e-005
Heightened Def Con from 7.03163e-005 to 7.03165e-005
Heightened Def Con from 7.03185e-005 to 7.03195e-005
Heightened Def Con from 7.03195e-005 to 7.03205e-005
Heightened Def Con from 7.03234e-005 to 7.03236e-005
Heightened Def Con from 7.03238e-005 to 7.03248e-005
Heightened Def Con from 7.03251e-005 ++to 7.03261e-005
Heightened Def Con from 7.03281e-005 +to 7.03283e-005
Heightened Def Con from 7.03283e-005 to 7.03293e-005
Heightened Def Con from 7.03668e-005 to 7.03678e-005
Heightened Def Con from 7.04273e-005 to 7.04283e-005
Heightened Def Con from 7.04365e-005 to 7.04366e-005
Heightened Def Con from 7.04366e-005 to 7.04376e-005
Heightened Def Con from 7.04446e-005 to 7.04456e-005
Heightened Def Con from 7.04456e-005 to 7.04466e-005
Heightened Def Con from 7.04475e-005 to 7.04476e-005
Heightened Def Con from 7.05137e-005 to 7.05147e-005
Heightened Def Con from 7.05169e-005 ++to 7.0517e-005
Heightened Def Con from 7.05826e-005 to 7.05836e-005
Heightened Def Con from 7.05836e-005 to 7.05838e-005
Heightened Def Con from 7.05838e-005 to 7.05848e-005
Heightened Def Con from 7.06176e-005 to 7.06177e-005
Heightened Def Con from 7.06189e-005 to 7.0619e-005
Heightened Def Con from 7.0619e-005 to 7.062e-005
Heightened Def Con from 7.06225e-005 to 7.06235e-005
Heightened Def Con from 7.06237e-005 to 7.06247e-005
Heightened Def Con from 7.06309e-005 to 7.0631e-005
Heightened Def Con from 7.0631e-005 ++to 7.06311e-005
Heightened Def Con from 7.06312e-005 to 7.06322e-005
Heightened Def Con from 7.06362e-005 to 7.06363e-005
Heightened Def Con from 7.0637e-005 to 7.0638e-005
Heightened Def Con from 7.06558e-005 to 7.06559e-005
Heightened Def Con from 7.06562e-005 to 7.06572e-005
Heightened Def Con from 7.06589e-005 to 7.0659e-005
Heightened Def Con from 7.06598e-005 to 7.06608e-005
Heightened Def Con from 7.06856e-005 to 7.06866e-005
Heightened Def Con from 7.06866e-005 to 7.06866e-005
Heightened Def Con from 7.06866e-005 to 7.06868e-005
Heightened Def Con from 7.07432e-005 to 7.07442e-005
Heightened Def Con from 7.08517e-005 to 7.08527e-005
Heightened Def Con from 7.08552e-005 to 7.08562e-005
Heightened Def Con from 7.08588e-005 to 7.08598e-005
Heightened Def Con from 7.08629e-005 to 7.0863e-005
Heightened Def Con from 7.08633e-005 +to 7.08643e-005
Heightened Def Con from 7.08643e-005 to 7.08653e-005
Heightened Def Con from 7.08713e-005 +to 7.08723e-005
Heightened Def Con from 7.09094e-005 to 7.09104e-005
Heightened Def Con from 7.10368e-005 to 7.10378e-005
Heightened Def Con from 8.3164e-005 to 8.31641e-005
Heightened Def Con from 8.31645e-005 +to 8.31646e-005
Heightened Def Con from 8.31646e-005 to 8.31647e-005
Heightened Def Con from 8.3165e-005 to 8.3166e-005
Heightened Def Con from 8.3168e-005 +to 8.31681e-005
Heightened Def Con from 8.31701e-005 to 8.31703e-005
Heightened Def Con from 8.31705e-005 to 8.31706e-005
Heightened Def Con from 8.31706e-005 to 8.31708e-005
Heightened Def Con from 8.3171e-005 to 8.3172e-005
Heightened Def Con from 8.3186e-005 +to 8.3187e-005
Heightened Def Con from 8.31895e-005 to 8.31896e-005
Heightened Def Con from 8.31896e-005 to 8.31906e-005
Heightened Def Con from 8.33376e-005 +to 8.33386e-005
Heightened Def Con from 8.33529e-005 to 8.33539e-005
Heightened Def Con from 8.33541e-005 to 8.33551e-005
Heightened Def Con from 8.33559e-005 to 8.33569e-005
Heightened Def Con from 8.33589e-005 to 8.3359e-005
Heightened Def Con from 8.3359e-005 to 8.336e-005
Heightened Def Con from 8.33629e-005 to 8.33639e-005
Heightened Def Con from 8.34386e-005 to 8.34386e-005
Heightened Def Con from 8.34387e-005 to 8.34397e-005
Heightened Def Con from 8.34423e-005 to 8.34424e-005
Heightened Def Con from 8.34427e-005 ++to 8.34437e-005
Heightened Def Con from 8.34463e-005 to 8.34473e-005
Heightened Def Con from 8.34476e-005 to 8.34477e-005
Heightened Def Con from 8.34478e-005 to 8.34479e-005
Heightened Def Con from 8.34497e-005 to 8.34507e-005
Heightened Def Con from 8.36211e-005 to 8.36212e-005
Heightened Def Con from 8.36212e-005 to 8.36222e-005
Heightened Def Con from 8.36287e-005 to 8.36297e-005
Heightened Def Con from 8.38894e-005 to 8.38904e-005
Heightened Def Con from 8.38907e-005 to 8.38917e-005
Heightened Def Con from 8.38939e-005 to 8.38949e-005
Heightened Def Con from 8.3897e-005 to 8.38971e-005
Heightened Def Con from 8.39132e-005 +to 8.39142e-005
Heightened Def Con from 8.39142e-005 to 8.39152e-005
Heightened Def Con from 8.40808e-005 to 8.40818e-005
Heightened Def Con from 8.41503e-005 to 8.41505e-005
Heightened Def Con from 8.41505e-005 to 8.41515e-005
Heightened Def Con from 8.41815e-005 to 8.41825e-005
Heightened Def Con from 8.41828e-005 to 8.41829e-005
Heightened Def Con from 8.41847e-005 to 8.41857e-005
Heightened Def Con from 8.41859e-005 to 8.41869e-005
Heightened Def Con from 8.42158e-005 +to 8.42168e-005
Heightened Def Con from 8.4219e-005 to 8.422e-005
Heightened Def Con from 8.42264e-005 to 8.42264e-005
Heightened Def Con from 8.42264e-005 +to 8.42274e-005
Heightened Def Con from 8.42279e-005 to 8.4228e-005
Heightened Def Con from 8.4228e-005 to 8.4229e-005
Heightened Def Con from 8.42324e-005 to 8.42334e-005
Heightened Def Con from 8.42334e-005 to 8.42335e-005
Heightened Def Con from 8.42337e-005 +to 8.42347e-005
Heightened Def Con from 8.44902e-005 to 8.44912e-005
Heightened Def Con from 8.44942e-005 to 8.44952e-005
Heightened Def Con from 8.44972e-005 to 8.44982e-005
Heightened Def Con from 8.44982e-005 to 8.44992e-005
Heightened Def Con from 8.44992e-005 ++to 8.44993e-005
Heightened Def Con from 8.45001e-005 to 8.45011e-005
Heightened Def Con from 8.45011e-005 to 8.45021e-005
Heightened Def Con from 8.4981e-005 to 8.49811e-005
Heightened Def Con from 8.49813e-005 to 8.49823e-005
Heightened Def Con from 8.49985e-005 to 8.49986e-005
Heightened Def Con from 8.49986e-005 to 8.49996e-005
Heightened Def Con from 8.50004e-005 +++to 8.50014e-005
Heightened Def Con from 8.50434e-005 to 8.50444e-005
Heightened Def Con from 8.50506e-005 to 8.50507e-005
Heightened Def Con from 8.50507e-005 to 8.50508e-005
Heightened Def Con from 8.51335e-005 to 8.51345e-005
Heightened Def Con from 8.51965e-005 to 8.51975e-005
Heightened Def Con from 8.5215e-005 to 8.5216e-005
Heightened Def Con from 8.5216e-005 to 8.5217e-005
Heightened Def Con from 8.5217e-005 to 8.5218e-005
Heightened Def Con from 8.52201e-005 to 8.52211e-005
Heightened Def Con from 8.52215e-005 to 8.52216e-005
Heightened Def Con from 8.52219e-005 to 8.52229e-005
Heightened Def Con from 8.5225e-005 +to 8.5226e-005
Heightened Def Con from 8.52334e-005 +to 8.52335e-005
Heightened Def Con from 8.52338e-005 to 8.52348e-005
Heightened Def Con from 8.52353e-005 to 8.52354e-005
Heightened Def Con from 8.52358e-005 to 8.5236e-005
Heightened Def Con from 8.52362e-005 to 8.52372e-005
Heightened Def Con from 8.52394e-005 to 8.52404e-005
Heightened Def Con from 8.52483e-005 to 8.52493e-005
Heightened Def Con from 8.52511e-005 to 8.52512e-005
Heightened Def Con from 8.52515e-005 to 8.52516e-005
Heightened Def Con from 8.52519e-005 to 8.52529e-005
Heightened Def Con from 8.52554e-005 to 8.52555e-005
Heightened Def Con from 8.52558e-005 ++to 8.52559e-005
Heightened Def Con from 8.52559e-005 to 8.52569e-005
Heightened Def Con from 8.52589e-005 to 8.52599e-005
Heightened Def Con from 8.52622e-005 to 8.52632e-005
Heightened Def Con from 8.52652e-005 +to 8.52662e-005
Heightened Def Con from 8.52662e-005 to 8.52672e-005
Heightened Def Con from 8.52675e-005 to 8.52685e-005
Heightened Def Con from 8.52697e-005 to 8.52707e-005
Heightened Def Con from 8.52875e-005 to 8.52877e-005
Heightened Def Con from 8.52915e-005 to 8.52925e-005
Heightened Def Con from 8.52925e-005 +to 8.52935e-005
Heightened Def Con from 8.52995e-005 to 8.53005e-005
Heightened Def Con from 8.53008e-005 to 8.53018e-005
Heightened Def Con from 8.54506e-005 to 8.54516e-005
Heightened Def Con from 8.54658e-005 to 8.54668e-005
Heightened Def Con from 8.54668e-005 to 8.54669e-005
Heightened Def Con from 8.54669e-005 +to 8.54679e-005
Heightened Def Con from 8.54687e-005 to 8.54688e-005
Heightened Def Con from 8.54688e-005 to 8.54689e-005
Heightened Def Con from 8.54727e-005 to 8.54737e-005
Heightened Def Con from 8.54737e-005 to 8.54747e-005
Heightened Def Con from 8.54807e-005 to 8.54817e-005
Heightened Def Con from 8.54912e-005 to 8.54922e-005
Heightened Def Con from 8.5494e-005 to 8.5495e-005
Heightened Def Con from 8.54979e-005 to 8.54989e-005
Heightened Def Con from 8.55015e-005 to 8.55025e-005
Heightened Def Con from 8.55085e-005 +to 8.55085e-005
Heightened Def Con from 8.55086e-005 +to 8.55096e-005
Heightened Def Con from 8.83026e-005 to 8.83036e-005
Heightened Def Con from 8.83041e-005 to 8.83051e-005
Heightened Def Con from 8.83051e-005 to 8.83061e-005
Heightened Def Con from 8.88993e-005 to 8.89003e-005
Heightened Def Con from 8.89041e-005 to 8.89051e-005
Heightened Def Con from 8.89106e-005 +to 8.89107e-005
Heightened Def Con from 8.89203e-005 to 8.89204e-005
Heightened Def Con from 8.89216e-005 +to 8.89217e-005
Heightened Def Con from 8.89217e-005 to 8.89227e-005
Heightened Def Con from 8.89308e-005 to 8.89318e-005
Heightened Def Con from 8.89318e-005 to 8.89319e-005
Heightened Def Con from 8.89337e-005 to 8.89347e-005
Heightened Def Con from 8.89347e-005 to 8.89357e-005
Heightened Def Con from 8.89405e-005 +to 8.89407e-005
Heightened Def Con from 8.89407e-005 to 8.89417e-005
Heightened Def Con from 8.89478e-005 to 8.89488e-005
Heightened Def Con from 8.89488e-005 ++to 8.89489e-005
Heightened Def Con from 8.89489e-005 to 8.89499e-005
Heightened Def Con from 8.89594e-005 to 8.89596e-005
Heightened Def Con from 8.89596e-005 to 8.89597e-005
Heightened Def Con from 8.89597e-005 to 8.89607e-005
Heightened Def Con from 8.89609e-005 to 8.89619e-005
Heightened Def Con from 8.89622e-005 to 8.89632e-005
Heightened Def Con from 8.89652e-005 to 8.89662e-005
Heightened Def Con from 8.89665e-005 to 8.89675e-005
Heightened Def Con from 8.89678e-005 to 8.89679e-005
Heightened Def Con from 8.89696e-005 to 8.89706e-005
Heightened Def Con from 8.89731e-005 to 8.89741e-005
Heightened Def Con from 8.89779e-005 +to 8.8978e-005
Heightened Def Con from 8.8978e-005 to 8.89781e-005
Heightened Def Con from 8.89781e-005 to 8.89791e-005
Heightened Def Con from 8.89792e-005 to 8.89802e-005
Heightened Def Con from 8.90002e-005 +to 8.90012e-005
Heightened Def Con from 8.90014e-005 to 8.90014e-005
Heightened Def Con from 8.90014e-005 to 8.90016e-005
Heightened Def Con from 8.90023e-005 +to 8.90033e-005
Heightened Def Con from 8.90042e-005 to 8.90043e-005
Heightened Def Con from 8.90047e-005 to 8.90047e-005
Heightened Def Con from 8.90047e-005 to 8.90057e-005
Heightened Def Con from 8.90757e-005 to 8.90767e-005
Heightened Def Con from 8.90793e-005 to 8.90794e-005
Heightened Def Con from 8.90795e-005 to 8.90796e-005
Heightened Def Con from 8.90796e-005 to 8.90806e-005
Heightened Def Con from 8.90806e-005 to 8.90816e-005
Heightened Def Con from 8.90837e-005 to 8.90838e-005
Heightened Def Con from 8.90838e-005 to 8.9084e-005
Heightened Def Con from 8.90844e-005 to 8.90845e-005
Heightened Def Con from 8.90845e-005 to 8.90846e-005
Heightened Def Con from 8.90849e-005 to 8.9085e-005
Heightened Def Con from 8.9085e-005 to 8.90851e-005
Heightened Def Con from 8.90877e-005 to 8.90887e-005
Heightened Def Con from 9.03837e-005 to 9.03838e-005
Heightened Def Con from 9.03845e-005 to 9.03855e-005
Heightened Def Con from 9.03855e-005 to 9.03865e-005
Heightened Def Con from 9.03867e-005 to 9.03877e-005
Heightened Def Con from 9.03898e-005 to 9.039e-005
Heightened Def Con from 9.03908e-005 to 9.03918e-005
Heightened Def Con from 9.04207e-005 to 9.04209e-005
Heightened Def Con from 9.04211e-005 ++to 9.04221e-005
Heightened Def Con from 9.04239e-005 to 9.04249e-005
Heightened Def Con from 9.04249e-005 to 9.04259e-005
Heightened Def Con from 9.04399e-005 to 9.04409e-005
Heightened Def Con from 9.04409e-005 +to 9.04419e-005
Heightened Def Con from 9.04419e-005 to 9.04429e-005
Heightened Def Con from 9.11309e-005 to 9.11319e-005
Heightened Def Con from 9.11459e-005 to 9.1146e-005
Heightened Def Con from 9.1146e-005 to 9.1147e-005
Heightened Def Con from 9.11785e-005 to 9.11795e-005
Heightened Def Con from 9.11795e-005 to 9.11805e-005
Heightened Def Con from 9.11825e-005 to 9.11835e-005
Heightened Def Con from 9.11874e-005 to 9.11884e-005
Heightened Def Con from 9.11948e-005 to 9.11949e-005
Heightened Def Con from 9.11961e-005 to 9.11962e-005
Heightened Def Con from 9.11962e-005 to 9.11964e-005
Heightened Def Con from 9.11968e-005 to 9.11978e-005
Heightened Def Con from 9.12057e-005 to 9.12067e-005
Heightened Def Con from 9.12163e-005 to 9.12173e-005
Heightened Def Con from 9.12173e-005 to 9.12174e-005
Heightened Def Con from 9.12177e-005 to 9.12187e-005
Heightened Def Con from 9.12187e-005 to 9.12187e-005
Heightened Def Con from 9.12187e-005 to 9.12197e-005
Heightened Def Con from 9.122e-005 to 9.12201e-005
Heightened Def Con from 9.12241e-005 to 9.12242e-005
Heightened Def Con from 9.12242e-005 to 9.12252e-005
Heightened Def Con from 9.14661e-005 to 9.14671e-005
Heightened Def Con from 9.14881e-005 to 9.14882e-005
Heightened Def Con from 9.14882e-005 to 9.14892e-005
Heightened Def Con from 9.14895e-005 to 9.14905e-005
Heightened Def Con from 9.14977e-005 to 9.14977e-005
Heightened Def Con from 9.14977e-005 to 9.14987e-005
Heightened Def Con from 9.15005e-005 to 9.15015e-005
Heightened Def Con from 9.15044e-005 to 9.15054e-005
Heightened Def Con from 9.15065e-005 to 9.15075e-005
Heightened Def Con from 9.15564e-005 to 9.15574e-005
Heightened Def Con from 9.15574e-005 +to 9.15575e-005
Heightened Def Con from 9.15583e-005 to 9.15593e-005
Heightened Def Con from 9.15604e-005 to 9.15614e-005
Heightened Def Con from 9.16331e-005 to 9.16341e-005
Heightened Def Con from 9.16414e-005 to 9.16424e-005
Heightened Def Con from 9.16428e-005 to 9.16438e-005
Heightened Def Con from 9.19701e-005 to 9.19711e-005
Heightened Def Con from 9.19711e-005 to 9.19721e-005
Heightened Def Con from 9.20376e-005 to 9.20377e-005
Heightened Def Con from 9.20378e-005 to 9.20378e-005
Heightened Def Con from 9.20378e-005 to 9.20379e-005
Heightened Def Con from 9.20388e-005 to 9.20398e-005
Heightened Def Con from 9.20453e-005 to 9.20454e-005
Heightened Def Con from 9.20472e-005 to 9.20472e-005
Heightened Def Con from 9.20472e-005 to 9.20473e-005
Heightened Def Con from 9.20493e-005 to 9.20495e-005
Heightened Def Con from 9.20512e-005 to 9.20522e-005
Heightened Def Con from 9.2053e-005 to 9.2054e-005
Heightened Def Con from 9.21137e-005 to 9.21147e-005
Heightened Def Con from 9.21287e-005 to 9.21297e-005
Heightened Def Con from 9.2165e-005 to 9.21652e-005
Heightened Def Con from 9.21652e-005 to 9.21653e-005
Heightened Def Con from 9.21653e-005 +to 9.21663e-005
Heightened Def Con from 9.21663e-005 to 9.21673e-005
Heightened Def Con from 9.21676e-005 to 9.21686e-005
Heightened Def Con from 9.21695e-005 to 9.21705e-005
Heightened Def Con from 9.21705e-005 to 9.21706e-005
Heightened Def Con from 9.2171e-005 +to 9.2172e-005
Heightened Def Con from 9.21755e-005 to 9.21756e-005
Heightened Def Con from 9.21756e-005 to 9.21757e-005
Heightened Def Con from 9.21761e-005 to 9.21762e-005
Heightened Def Con from 9.21762e-005 to 9.21772e-005
Heightened Def Con from 9.2192e-005 to 9.2193e-005
Heightened Def Con from 9.2237e-005 to 9.2238e-005
Heightened Def Con from 9.224e-005 to 9.2241e-005
Heightened Def Con from 9.34413e-005 to 9.34423e-005
Heightened Def Con from 9.34442e-005 to 9.34452e-005
Heightened Def Con from 9.34564e-005 to 9.34574e-005
Heightened Def Con from 9.35277e-005 to 9.35278e-005
Heightened Def Con from 9.35282e-005 to 9.35283e-005
Heightened Def Con from 9.35295e-005 to 9.35296e-005
Heightened Def Con from 9.35313e-005 to 9.35315e-005
Heightened Def Con from 9.35394e-005 to 9.35404e-005
Heightened Def Con from 9.35844e-005 to 9.35854e-005
Heightened Def Con from 9.35876e-005 to 9.35877e-005
Heightened Def Con from 9.35877e-005 to 9.35887e-005
Heightened Def Con from 9.35978e-005 to 9.35988e-005
Heightened Def Con from 9.35988e-005 to 9.35998e-005
Heightened Def Con from 9.36025e-005 to 9.36035e-005
Heightened Def Con from 9.36051e-005 to 9.36061e-005
[...]
Heightened Def Con from 0.000284713 to 0.000284714
Heightened Def Con from 0.000284733 +to 0.000284734
Heightened Def Con from 0.000284736 ++to 0.000284737
Heightened Def Con from 0.000284742 to 0.000284743
Heightened Def Con from 0.000284743 +to 0.000284744
Heightened Def Con from 0.000284745 to 0.000284745
Heightened Def Con from 0.000284765 to 0.000284765
Heightened Def Con from 0.000284765 to 0.000284765
Heightened Def Con from 0.000284765 to 0.000284765
Heightened Def Con from 0.000284766 to 0.000284767
Heightened Def Con from 0.000284767 to 0.000284768
Heightened Def Con from 0.000284768 to 0.000284768
Heightened Def Con from 0.000284769 to 0.00028477
Heightened Def Con from 0.00028477 to 0.00028477
Heightened Def Con from 0.000284771 to 0.000284772
Heightened Def Con from 0.000284774 to 0.000284774
Heightened Def Con from 0.000284776 to 0.000284777
Heightened Def Con from 0.000284777 to 0.000284778
Heightened Def Con from 0.000284781 to 0.000284782
Heightened Def Con from 0.000284784 to 0.000284784
Heightened Def Con from 0.000284784 to 0.000284785
Heightened Def Con from 0.000284786 to 0.000284786
Heightened Def Con from 0.00028479 to 0.00028479
Heightened Def Con from 0.000284793 to 0.000284794
Heightened Def Con from 0.000284814 to 0.000284815
Heightened Def Con from 0.000284816 to 0.000284817
Heightened Def Con from 0.000284817 to 0.000284817
Heightened Def Con from 0.000284817 to 0.000284818
Heightened Def Con from 0.000284818 to 0.000284818
Heightened Def Con from 0.000284818 +to 0.000284818
Heightened Def Con from 0.000284819 to 0.00028482
Heightened Def Con from 0.000284829 to 0.000284829
Heightened Def Con from 0.000284831 to 0.000284831
Heightened Def Con from 0.000284831 to 0.000284832
Heightened Def Con from 0.000284835 to 0.000284835
Heightened Def Con from 0.000284839 to 0.00028484
Heightened Def Con from 0.000284842 to 0.000284843
Heightened Def Con from 0.000284858 to 0.000284859
Heightened Def Con from 0.00028493 to 0.000284931
Heightened Def Con from 0.000284931 to 0.000284932
Heightened Def Con from 0.000284934 to 0.000284935
Heightened Def Con from 0.000284979 to 0.00028498
Heightened Def Con from 0.000284983 to 0.000284983
Heightened Def Con from 0.000284983 to 0.000284984
Heightened Def Con from 0.000284984 to 0.000284984
Heightened Def Con from 0.000284984 to 0.000284985
Heightened Def Con from 0.000284986 to 0.000284986
Heightened Def Con from 0.000285008 to 0.000285009
Heightened Def Con from 0.000285009 to 0.000285009
Heightened Def Con from 0.000285011 to 0.000285011
Heightened Def Con from 0.000285019 to 0.00028502
Heightened Def Con from 0.000285024 +to 0.000285024
Heightened Def Con from 0.000285024 +to 0.000285024
Heightened Def Con from 0.000285026 to 0.000285027
Heightened Def Con from 0.000285044 to 0.000285045
Heightened Def Con from 0.000285045 to 0.000285046
Heightened Def Con from 0.000285057 to 0.000285057
Heightened Def Con from 0.000285057 +to 0.000285058
Heightened Def Con from 0.000285071 +to 0.000285072
Heightened Def Con from 0.000285073 to 0.000285074
Heightened Def Con from 0.00028508 to 0.000285081
Heightened Def Con from 0.000285095 to 0.000285096
Heightened Def Con from 0.00028517 to 0.000285171
Heightened Def Con from 0.000285171 to 0.000285171
Heightened Def Con from 0.000285172 to 0.000285173
Heightened Def Con from 0.00028519 ++to 0.00028519
Heightened Def Con from 0.000285192 to 0.000285193
Heightened Def Con from 0.000285193 to 0.000285194
Heightened Def Con from 0.000285194 to 0.000285194
Heightened Def Con from 0.000285194 to 0.000285195
Heightened Def Con from 0.000285195 to 0.000285195
Heightened Def Con from 0.000285195 to 0.000285195
Heightened Def Con from 0.000285196 to 0.000285196
Heightened Def Con from 0.000285196 +to 0.000285197
Heightened Def Con from 0.000285197 to 0.000285198
Heightened Def Con from 0.000285213 to 0.000285213
Heightened Def Con from 0.000285225 to 0.000285226
Heightened Def Con from 0.000285227 to 0.000285228
Heightened Def Con from 0.00028523 to 0.000285231
Heightened Def Con from 0.000285233 to 0.000285234
Heightened Def Con from 0.000285238 to 0.000285239
Heightened Def Con from 0.000285241 to 0.000285241
Heightened Def Con from 0.000285241 to 0.000285241
Heightened Def Con from 0.000285242 to 0.000285243
Heightened Def Con from 0.000285243 to 0.000285244
Heightened Def Con from 0.000285244 +to 0.000285244
Heightened Def Con from 0.000285244 to 0.000285244
Heightened Def Con from 0.000285245 to 0.000285246
Heightened Def Con from 0.000285246 to 0.000285246
Heightened Def Con from 0.000285246 to 0.000285246
Heightened Def Con from 0.000285246 +to 0.000285246
Heightened Def Con from 0.000285247 to 0.000285247
Heightened Def Con from 0.000285247 to 0.000285248
Heightened Def Con from 0.000285248 to 0.000285249
Heightened Def Con from 0.000285249 +to 0.000285249
Heightened Def Con from 0.000285251 to 0.000285251
Heightened Def Con from 0.000285251 to 0.000285252
Heightened Def Con from 0.000285252 to 0.000285253
Heightened Def Con from 0.000285255 to 0.000285256
Heightened Def Con from 0.00028526 to 0.00028526
Heightened Def Con from 0.00028526 to 0.000285261
Heightened Def Con from 0.000285263 to 0.000285264
Heightened Def Con from 0.000285326 to 0.000285327
Heightened Def Con from 0.000285327 to 0.000285328
Heightened Def Con from 0.00028533 to 0.000285331
Heightened Def Con from 0.000285345 to 0.000285346
Heightened Def Con from 0.000285348 to 0.000285348
Heightened Def Con from 0.000285348 to 0.000285349
Heightened Def Con from 0.000285363 to 0.000285364
Heightened Def Con from 0.000285373 to 0.000285373
Heightened Def Con from 0.000285373 to 0.000285373
Heightened Def Con from 0.000285373 to 0.000285373
Heightened Def Con from 0.000285373 to 0.000285374
Heightened Def Con from 0.000285378 to 0.000285378
Heightened Def Con from 0.000285378 to 0.000285379
Heightened Def Con from 0.000285379 to 0.00028538
Heightened Def Con from 0.000285386 to 0.000285387
Heightened Def Con from 0.000285387 to 0.000285387
Heightened Def Con from 0.000285392 to 0.000285392
Heightened Def Con from 0.000285392 to 0.000285393
Heightened Def Con from 0.000285395 to 0.000285396
Heightened Def Con from 0.000285397 to 0.000285398
Heightened Def Con from 0.000285415 +to 0.000285416
Heightened Def Con from 0.000285418 to 0.000285419
Heightened Def Con from 0.000285433 to 0.000285434
Heightened Def Con from 0.000285434 to 0.000285435
Heightened Def Con from 0.000285453 to 0.000285453
Heightened Def Con from 0.000285455 to 0.000285456
Heightened Def Con from 0.000285456 to 0.000285457
Heightened Def Con from 0.000285462 to 0.000285462
Heightened Def Con from 0.000285462 to 0.000285463
Heightened Def Con from 0.000285464 to 0.000285464
Heightened Def Con from 0.000285464 to 0.000285465
Heightened Def Con from 0.000285465 to 0.000285466
Heightened Def Con from 0.000285489 to 0.00028549
Heightened Def Con from 0.000285518 to 0.000285519
Heightened Def Con from 0.000285665 to 0.000285666
Heightened Def Con from 0.00028567 ++to 0.00028567
Heightened Def Con from 0.000285671 to 0.000285672
Heightened Def Con from 0.000285672 to 0.000285673
Heightened Def Con from 0.00028568 to 0.00028568
Heightened Def Con from 0.00028568 to 0.00028568
Heightened Def Con from 0.00028568 to 0.000285681
Heightened Def Con from 0.000285683 to 0.000285684
Heightened Def Con from 0.0002857 to 0.0002857
Heightened Def Con from 0.000285701 to 0.000285702
Heightened Def Con from 0.000285732 to 0.000285732
Heightened Def Con from 0.000285732 to 0.000285732
Heightened Def Con from 0.000285734 +to 0.000285735
Heightened Def Con from 0.000285735 ++to 0.000285736
Heightened Def Con from 0.000285738 to 0.000285738
Heightened Def Con from 0.00028574 to 0.000285741
Heightened Def Con from 0.000285743 to 0.000285744
Heightened Def Con from 0.000285745 to 0.000285746
Heightened Def Con from 0.000285777 to 0.000285778
Heightened Def Con from 0.000285778 to 0.000285778
Heightened Def Con from 0.000285778 to 0.000285779
Heightened Def Con from 0.000285785 to 0.000285785
Heightened Def Con from 0.000285785 to 0.000285786
Heightened Def Con from 0.000285786 to 0.000285787
Heightened Def Con from 0.000285789 to 0.000285789
Heightened Def Con from 0.000285789 +to 0.00028579
Heightened Def Con from 0.00028579 to 0.000285791
Heightened Def Con from 0.000285793 to 0.000285793
Heightened Def Con from 0.000285793 to 0.000285793
Heightened Def Con from 0.000285793 to 0.000285793
Heightened Def Con from 0.000285801 to 0.000285802
Heightened Def Con from 0.000285803 to 0.000285803
Heightened Def Con from 0.000285803 +to 0.000285804
Heightened Def Con from 0.000285804 to 0.000285804
Heightened Def Con from 0.000285805 to 0.000285806
Heightened Def Con from 0.000285808 to 0.000285808
Heightened Def Con from 0.000285808 to 0.000285809
Heightened Def Con from 0.00028581 to 0.000285811
Heightened Def Con from 0.000285811 to 0.000285812
Heightened Def Con from 0.000285812 to 0.000285813
Heightened Def Con from 0.000285815 to 0.000285815
Heightened Def Con from 0.000285817 to 0.000285817
Heightened Def Con from 0.000285817 to 0.000285817
Heightened Def Con from 0.000285821 to 0.000285821
Heightened Def Con from 0.000285821 to 0.000285822
Heightened Def Con from 0.000285827 to 0.000285827
Heightened Def Con from 0.000285827 to 0.000285827
Heightened Def Con from 0.000285827 to 0.000285828
Heightened Def Con from 0.000285828 to 0.000285828
Heightened Def Con from 0.000285828 to 0.000285829
Heightened Def Con from 0.000285842 to 0.000285843
Heightened Def Con from 0.000285849 +to 0.000285849
Heightened Def Con from 0.000285849 to 0.000285849
Heightened Def Con from 0.00028585 +to 0.00028585
Heightened Def Con from 0.000285853 to 0.000285853
Heightened Def Con from 0.000285856 to 0.000285857
Heightened Def Con from 0.000285858 to 0.000285858
Heightened Def Con from 0.000285858 to 0.000285859
Heightened Def Con from 0.000285862 to 0.000285863
Heightened Def Con from 0.000285868 to 0.000285869
Heightened Def Con from 0.000285869 to 0.000285869
Heightened Def Con from 0.000285869 to 0.000285869
Heightened Def Con from 0.000285869 to 0.00028587
Heightened Def Con from 0.00028587 to 0.00028587
Heightened Def Con from 0.00028587 to 0.00028587
Heightened Def Con from 0.00028587 to 0.000285871
Heightened Def Con from 0.000285872 to 0.000285873
Heightened Def Con from 0.000285887 to 0.000285888
Heightened Def Con from 0.000285965 to 0.000285966
Heightened Def Con from 0.000285966 to 0.000285967
Heightened Def Con from 0.000285971 to 0.000285972
Heightened Def Con from 0.000285985 to 0.000285986
Heightened Def Con from 0.000285987 to 0.000285987
Heightened Def Con from 0.000285987 to 0.000285987
Heightened Def Con from 0.000285993 to 0.000285994
Heightened Def Con from 0.000285996 to 0.000285996
Heightened Def Con from 0.000285996 to 0.000285997
Heightened Def Con from 0.000286 to 0.000286001
Heightened Def Con from 0.000286002 to 0.000286002
Heightened Def Con from 0.000286003 to 0.000286003
Heightened Def Con from 0.000286014 to 0.000286015
Heightened Def Con from 0.000286015 to 0.000286016
Heightened Def Con from 0.000286016 to 0.000286017
Heightened Def Con from 0.000286018 +to 0.000286019
Heightened Def Con from 0.000286021 +to 0.000286022
Heightened Def Con from 0.00028603 to 0.000286031
Heightened Def Con from 0.000286038 to 0.000286038
Heightened Def Con from 0.000286038 to 0.000286039
Heightened Def Con from 0.000286039 to 0.000286039
Heightened Def Con from 0.000286039 ++to 0.000286039
Heightened Def Con from 0.000286041 to 0.000286042
Heightened Def Con from 0.000286045 to 0.000286045
Heightened Def Con from 0.000286045 to 0.000286046
Heightened Def Con from 0.000286046 to 0.000286047
Heightened Def Con from 0.000286055 to 0.000286055
Heightened Def Con from 0.000286055 to 0.000286056
Heightened Def Con from 0.000286058 to 0.000286059
Heightened Def Con from 0.000286059 to 0.000286059
Heightened Def Con from 0.00028606 to 0.00028606
Heightened Def Con from 0.00028606 to 0.00028606
Heightened Def Con from 0.00028606 to 0.000286061
Heightened Def Con from 0.000286063 to 0.000286064
Heightened Def Con from 0.000286066 to 0.000286067
Heightened Def Con from 0.000286069 to 0.00028607
Heightened Def Con from 0.000286227 to 0.000286227
Heightened Def Con from 0.000286227 to 0.000286227
Heightened Def Con from 0.000286228 to 0.000286229
Heightened Def Con from 0.000286244 to 0.000286245
Heightened Def Con from 0.000286303 to 0.000286304
Heightened Def Con from 0.000286304 to 0.000286305
Heightened Def Con from 0.000286313 to 0.000286313
Heightened Def Con from 0.000286321 to 0.000286322
Heightened Def Con from 0.000286324 to 0.000286325
Heightened Def Con from 0.000286333 +to 0.000286334
Heightened Def Con from 0.000286334 +to 0.000286335
Heightened Def Con from 0.000286335 to 0.000286335
Heightened Def Con from 0.00028634 to 0.000286341
Heightened Def Con from 0.000286351 to 0.000286351
Heightened Def Con from 0.000286352 to 0.000286352
Heightened Def Con from 0.000286357 to 0.000286358
Heightened Def Con from 0.000286358 to 0.000286358
Heightened Def Con from 0.000286359 to 0.00028636
Heightened Def Con from 0.00028636 to 0.000286361
Heightened Def Con from 0.000286361 to 0.000286362
Heightened Def Con from 0.000286369 +to 0.00028637
Heightened Def Con from 0.00028637 to 0.000286371
Heightened Def Con from 0.000286371 to 0.000286372
Heightened Def Con from 0.000286402 to 0.000286402
Heightened Def Con from 0.000286403 to 0.000286404
Heightened Def Con from 0.000286754 to 0.000286755
Heightened Def Con from 0.00028676 +to 0.000286761
Heightened Def Con from 0.0002868 to 0.000286801
Heightened Def Con from 0.000286815 to 0.000286816
Heightened Def Con from 0.000286879 to 0.000286879
Heightened Def Con from 0.000286879 to 0.00028688
Heightened Def Con from 0.000286883 to 0.000286884
Heightened Def Con from 0.00028732 to 0.00028732
Heightened Def Con from 0.00028732 +to 0.000287321
Heightened Def Con from 0.000287321 to 0.000287322
Heightened Def Con from 0.000287322 to 0.000287323
Heightened Def Con from 0.000287323 to 0.000287323
Heightened Def Con from 0.000287324 to 0.000287325
Heightened Def Con from 0.000287327 +to 0.000287327
Heightened Def Con from 0.000287328 to 0.000287329
Heightened Def Con from 0.000287329 to 0.00028733
Heightened Def Con from 0.00028733 to 0.000287331
Heightened Def Con from 0.000287337 to 0.000287338
Heightened Def Con from 0.000287338 to 0.000287339
Heightened Def Con from 0.000287339 to 0.000287339
Heightened Def Con from 0.000287339 to 0.00028734
Heightened Def Con from 0.00028734 to 0.000287341
Heightened Def Con from 0.000287349 to 0.00028735
Heightened Def Con from 0.000287356 to 0.000287357
Heightened Def Con from 0.000287358 to 0.000287359
Heightened Def Con from 0.000287366 to 0.000287366
Heightened Def Con from 0.000287366 to 0.000287367
Heightened Def Con from 0.000287372 to 0.000287372
Heightened Def Con from 0.000287374 to 0.000287374
Heightened Def Con from 0.000287374 to 0.000287375
Heightened Def Con from 0.000287379 to 0.00028738
Heightened Def Con from 0.000287382 to 0.000287383
Heightened Def Con from 0.000287386 to 0.000287387
Heightened Def Con from 0.000287387 +to 0.000287387
Heightened Def Con from 0.000287387 to 0.000287387
Heightened Def Con from 0.000287388 to 0.000287389
Heightened Def Con from 0.000287395 to 0.000287396
Heightened Def Con from 0.000287578 to 0.000287579
Heightened Def Con from 0.000287627 to 0.000287627
Heightened Def Con from 0.000287627 to 0.000287628
Heightened Def Con from 0.000287632 to 0.000287633
Heightened Def Con from 0.000287636 +to 0.000287636
Heightened Def Con from 0.000287636 to 0.000287637
Heightened Def Con from 0.00028764 to 0.000287641
Heightened Def Con from 0.000287644 to 0.000287644
Heightened Def Con from 0.000287648 to 0.000287648
Heightened Def Con from 0.000287652 +to 0.000287652
Heightened Def Con from 0.000287653 to 0.000287654
Heightened Def Con from 0.000287656 to 0.000287657
Heightened Def Con from 0.000287663 to 0.000287664
Heightened Def Con from 0.000287664 to 0.000287665
Heightened Def Con from 0.000287702 to 0.000287703
Heightened Def Con from 0.000287725 to 0.000287725
Heightened Def Con from 0.000287725 to 0.000287726
Heightened Def Con from 0.000287726 to 0.000287726
Heightened Def Con from 0.000287727 to 0.000287728
Heightened Def Con from 0.000287734 to 0.000287734
Heightened Def Con from 0.000287734 to 0.000287735
Heightened Def Con from 0.000287738 to 0.000287739
Heightened Def Con from 0.000287745 to 0.000287746
Heightened Def Con from 0.000287746 to 0.000287747
Heightened Def Con from 0.000287749 to 0.00028775
Heightened Def Con from 0.00028775 to 0.000287751
Heightened Def Con from 0.000287751 to 0.000287752
Heightened Def Con from 0.000287756 to 0.000287757
Heightened Def Con from 0.000287759 to 0.00028776
Heightened Def Con from 0.00028776 to 0.000287761
Heightened Def Con from 0.000289718 to 0.000289719
Heightened Def Con from 0.00028974 to 0.000289741
Heightened Def Con from 0.000289741 to 0.000289742
Heightened Def Con from 0.000289996 to 0.000289996
Heightened Def Con from 0.000289996 to 0.000289997
Heightened Def Con from 0.000289997 to 0.000289998
Heightened Def Con from 0.000289998 to 0.000289998
Heightened Def Con from 0.000289999 to 0.000289999
Heightened Def Con from 0.00029 to 0.00029
Heightened Def Con from 0.000290006 to 0.000290007
Heightened Def Con from 0.000290011 to 0.000290011
Heightened Def Con from 0.000290011 to 0.000290012
Heightened Def Con from 0.000290017 to 0.000290017
Heightened Def Con from 0.000290017 to 0.000290018
Heightened Def Con from 0.000290019 to 0.00029002
Heightened Def Con from 0.000290192 to 0.000290193
Heightened Def Con from 0.000290193 to 0.000290193
Heightened Def Con from 0.000290193 to 0.000290194
Heightened Def Con from 0.000290195 +to 0.000290196
Heightened Def Con from 0.000290199 to 0.000290199
Heightened Def Con from 0.000290204 to 0.000290205
Heightened Def Con from 0.000290216 to 0.000290217
Heightened Def Con from 0.000290248 to 0.000290249
Heightened Def Con from 0.000290264 to 0.000290264
Heightened Def Con from 0.000290264 +to 0.000290264
Heightened Def Con from 0.000290264 to 0.000290264
Heightened Def Con from 0.000290264 to 0.000290265
Heightened Def Con from 0.000290266 to 0.000290267
Heightened Def Con from 0.000290272 to 0.000290273
Heightened Def Con from 0.000290278 +++to 0.000290278
Heightened Def Con from 0.000290278 to 0.000290278
Heightened Def Con from 0.000290278 +to 0.000290278
Heightened Def Con from 0.000290279 +to 0.00029028
Heightened Def Con from 0.000290301 to 0.000290302
Heightened Def Con from 0.000290309 to 0.00029031
Heightened Def Con from 0.000290316 to 0.000290316
Heightened Def Con from 0.000290317 to 0.000290317
Heightened Def Con from 0.000290317 +to 0.000290318
Heightened Def Con from 0.000290348 to 0.000290349
Heightened Def Con from 0.000290349 to 0.00029035
Heightened Def Con from 0.000290351 to 0.000290351
Heightened Def Con from 0.000290353 to 0.000290354
Heightened Def Con from 0.000290354 to 0.000290355
Heightened Def Con from 0.000290383 to 0.000290383
Heightened Def Con from 0.000290385 to 0.000290386
Heightened Def Con from 0.000290661 to 0.000290662
Heightened Def Con from 0.000290662 to 0.000290663
Heightened Def Con from 0.000290663 to 0.000290663
Heightened Def Con from 0.000290663 to 0.000290663
Heightened Def Con from 0.000290663 to 0.000290663
Heightened Def Con from 0.000290663 ++++to 0.000290664
Heightened Def Con from 0.000290664 +to 0.000290664

Date: Mon Jun 13 22:33:14 2022
Total elapsed time: 24.178 seconds.

tnom = 27
temp = 27
method = modified trap
totiter = 628115
traniter = 628089
tranpoints = 66853
accept = 22658
rejected = 47851
matrix size = 238
fillins = 266
solver = Normal
Thread vector: 33.1/20.6[4] 8.3/5.7[4] 12.7/7.0[4] 1.9/3.7[1]  2592/500
Matrix Compiler1: 27.38 KB object code size  9.2/5.0/[1.9]
Matrix Compiler2: 25.35 KB object code size  4.7/4.4/[2.1]

