Circuit: * C:\Users\elias\OneDrive\Desktop\Analog AI\Spice Simulations\Pooling Layer\V2.asc

Instance "m:u3:6": Length shorter than recommended for a level 2 MOSFET.
Instance "m:u3:5": Length shorter than recommended for a level 2 MOSFET.
Instance "m:u3:4": Length shorter than recommended for a level 2 MOSFET.
Instance "m:u3:3": Length shorter than recommended for a level 2 MOSFET.
Instance "m:u3:2": Length shorter than recommended for a level 2 MOSFET.
Instance "m:u3:1": Length shorter than recommended for a level 2 MOSFET.
Instance "m:u2:6": Length shorter than recommended for a level 2 MOSFET.
Instance "m:u2:5": Length shorter than recommended for a level 2 MOSFET.
Instance "m:u2:4": Length shorter than recommended for a level 2 MOSFET.
Instance "m:u2:3": Length shorter than recommended for a level 2 MOSFET.
Instance "m:u2:2": Length shorter than recommended for a level 2 MOSFET.
Instance "m:u2:1": Length shorter than recommended for a level 2 MOSFET.
Instance "m:u1:6": Length shorter than recommended for a level 2 MOSFET.
Instance "m:u1:5": Length shorter than recommended for a level 2 MOSFET.
Instance "m:u1:4": Length shorter than recommended for a level 2 MOSFET.
Instance "m:u1:3": Length shorter than recommended for a level 2 MOSFET.
Instance "m:u1:2": Length shorter than recommended for a level 2 MOSFET.
Instance "m:u1:1": Length shorter than recommended for a level 2 MOSFET.
Direct Newton iteration for .op point succeeded.

Date: Mon Jun 13 22:41:29 2022
Total elapsed time: 0.267 seconds.

tnom = 27
temp = 27
method = modified trap
totiter = 2642
traniter = 2630
tranpoints = 1267
accept = 1214
rejected = 53
matrix size = 174
fillins = 101
solver = Normal
Thread vector: 23.0/14.1[3] 6.0/5.1[3] 8.2/5.1[3] 1.2/2.6[1]  2592/500
Matrix Compiler1: 13.93 KB object code size  5.0/2.8/[1.3]
Matrix Compiler2: 16.83 KB object code size  2.3/2.9/[1.1]

