Circuit: * C:\Users\elias\OneDrive\Desktop\Analog AI\Spice Simulations\Pooling Layer\V3.asc

Instance "m:u3:6": Length shorter than recommended for a level 2 MOSFET.
Instance "m:u3:5": Length shorter than recommended for a level 2 MOSFET.
Instance "m:u3:4": Length shorter than recommended for a level 2 MOSFET.
Instance "m:u3:3": Length shorter than recommended for a level 2 MOSFET.
Instance "m:u3:2": Length shorter than recommended for a level 2 MOSFET.
Instance "m:u3:1": Length shorter than recommended for a level 2 MOSFET.
Instance "m:u2:6": Length shorter than recommended for a level 2 MOSFET.
Instance "m:u2:5": Length shorter than recommended for a level 2 MOSFET.
Instance "m:u2:4": Length shorter than recommended for a level 2 MOSFET.
Instance "m:u2:3": Length shorter than recommended for a level 2 MOSFET.
Instance "m:u2:2": Length shorter than recommended for a level 2 MOSFET.
Instance "m:u2:1": Length shorter than recommended for a level 2 MOSFET.
Instance "m:u1:6": Length shorter than recommended for a level 2 MOSFET.
Instance "m:u1:5": Length shorter than recommended for a level 2 MOSFET.
Instance "m:u1:4": Length shorter than recommended for a level 2 MOSFET.
Instance "m:u1:3": Length shorter than recommended for a level 2 MOSFET.
Instance "m:u1:2": Length shorter than recommended for a level 2 MOSFET.
Instance "m:u1:1": Length shorter than recommended for a level 2 MOSFET.
Direct Newton iteration for .op point succeeded.

Date: Mon Jun 13 22:47:49 2022
Total elapsed time: 0.318 seconds.

tnom = 27
temp = 27
method = modified trap
totiter = 2838
traniter = 2805
tranpoints = 1327
accept = 1254
rejected = 73
matrix size = 167
fillins = 130
solver = Normal
Thread vector: 25.8/21.4[3] 5.9/5.7[1] 9.7/7.4[3] 1.3/2.9[1]  2592/500
Matrix Compiler1: 15.85 KB object code size  5.2/3.0/[2.0]
Matrix Compiler2: 16.99 KB object code size  2.6/4.3/[1.3]

